data_cif

_audit_creation_method             'generated by GULP'

_symmetry_space_group_name_H-M     'P 1'
_symmetry_Int_Tables_number        1
_symmetry_cell_setting             triclinic

_cell_length_a                       11.9293
_cell_length_b                       12.0000
_cell_length_c                       29.4162
_cell_angle_alpha                   90.0854
_cell_angle_beta                    90.3472
_cell_angle_gamma                  120.1698

loop_
_atom_site_label
_atom_site_fract_x
_atom_site_fract_y
_atom_site_fract_z
_atom_site_occupancy
  Ge          0.69960      0.37570      0.03389  1.0000
  Si          0.59806      0.30692      0.36506  1.0000
  Si          0.65937      0.28526      0.69781  1.0000
  Si          0.27370      0.60602      0.52956  1.0000
  Si          0.36222      0.66312      0.86216  1.0000
  Si          0.29998      0.69053      0.19678  1.0000
  Si          0.35266      0.68286      0.29733  1.0000
  Si          0.30761      0.61038      0.96249  1.0000
  Si          0.27968      0.66392      0.63029  1.0000
  Si          0.60601      0.28499      0.79859  1.0000
  Si          0.65279      0.36514      0.46572  1.0000
  Si          0.66819      0.30585      0.13212  1.0000
  Si          0.52040      0.40821      0.96626  1.0000
  Si          0.56019      0.09419      0.30173  1.0000
  Si          0.86826      0.45749      0.63277  1.0000
  Si          0.44331      0.56684      0.46373  1.0000
  Si          0.40028      0.87308      0.79741  1.0000
  Si          0.09099      0.51976      0.12948  1.0000
  Si          0.39118      0.51045      0.36187  1.0000
  Si          0.09384      0.57346      0.02627  1.0000
  Si          0.45248      0.87511      0.69554  1.0000
  Si          0.56921      0.45849      0.86348  1.0000
  Si          0.86413      0.40327      0.53100  1.0000
  Si          0.50789      0.09855      0.20011  1.0000
  Si          0.28705      0.38650      0.84789  1.0000
  Si          0.57978      0.89164      0.18315  1.0000
  Si          0.07214      0.68335      0.51572  1.0000
  Si          0.67318      0.58275      0.34858  1.0000
  Si          0.38055      0.08347      0.68194  1.0000
  Si          0.88073      0.28533      0.01044  1.0000
  Si          0.37289      0.28727      0.47886  1.0000
  Si          0.87586      0.59069      0.14284  1.0000
  Si          0.68265      0.08344      0.81255  1.0000
  Si          0.58680      0.68911      0.97798  1.0000
  Si          0.07875      0.38609      0.64600  1.0000
  Si          0.27739      0.88415      0.31401  1.0000
  Si          0.23990      0.33174      0.94851  1.0000
  Si          0.63569      0.89291      0.28415  1.0000
  Si          0.06935      0.73591      0.61660  1.0000
  Si          0.72344      0.64450      0.44935  1.0000
  Si          0.32378      0.07482      0.78271  1.0000
  Si          0.88547      0.23820      0.11384  1.0000
  Si          0.31540      0.23333      0.37798  1.0000
  Si          0.89269      0.65785      0.04041  1.0000
  Si          0.73206      0.07741      0.71167  1.0000
  Si          0.64430      0.73660      0.87718  1.0000
  Si          0.06555      0.32528      0.54514  1.0000
  Si          0.22727      0.89706      0.21330  1.0000
  Si          0.96163      0.11237      0.96259  1.0000
  Si          0.85291      0.82929      0.29789  1.0000
  Si          0.13135      0.01550      0.63096  1.0000
  Si          0.00398      0.86308      0.46477  1.0000
  Si          0.10659      0.13748      0.79706  1.0000
  Si          0.82759      0.96165      0.13142  1.0000
  Si          0.09763      0.95244      0.36368  1.0000
  Si          0.83519      0.87552      0.02969  1.0000
  Si          0.01222      0.13879      0.69609  1.0000
  Si          0.86383      0.01475      0.86229  1.0000
  Si          0.12609      0.10687      0.53002  1.0000
  Si          0.94733      0.83760      0.19633  1.0000
  O2          0.91573      0.99884      0.99867  1.0000
  O2          0.97663      0.90916      0.33008  1.0000
  O2          0.05151      0.05832      0.66290  1.0000
  O2          0.04563      0.98545      0.49702  1.0000
  O2          0.98387      0.05732      0.82900  1.0000
  O2          0.90938      0.92247      0.16462  1.0000
  O2          0.31386      0.55808      0.32884  1.0000
  O2          0.40459      0.75024      0.66263  1.0000
  O2          0.22120      0.64800      0.99507  1.0000
  O2          0.64527      0.40786      0.83147  1.0000
  O2          0.55881      0.22735      0.17005  1.0000
  O2          0.73625      0.32641      0.49897  1.0000
  O3          0.56354      0.33262      0.99843  1.0000
  O2          0.74391      0.40925      0.66557  1.0000
  O2          0.63753      0.21957      0.33426  1.0000
  O2          0.39495      0.64399      0.49586  1.0000
  O2          0.21516      0.56909      0.16276  1.0000
  O2          0.32316      0.74718      0.82924  1.0000
  O2          0.11582      0.20291      0.96862  1.0000
  O2          0.76182      0.89193      0.30437  1.0000
  O2          0.06911      0.86174      0.63674  1.0000
  O2          0.84906      0.77225      0.46964  1.0000
  O2          0.19706      0.07385      0.80288  1.0000
  O2          0.88845      0.11581      0.13570  1.0000
  O2          0.18913      0.10614      0.35760  1.0000
  O2          0.90928      0.79497      0.02491  1.0000
  O2          0.85750      0.07677      0.69102  1.0000
  O2          0.77141      0.86106      0.85655  1.0000
  O2          0.06229      0.19736      0.52520  1.0000
  O2          0.10232      0.90031      0.19292  1.0000
  O2          0.90243      0.84291      0.24682  1.0000
  O2          0.11594      0.05293      0.58018  1.0000
  O2          0.92060      0.05127      0.91287  1.0000
  O2          0.05403      0.12441      0.74623  1.0000
  O2          0.84038      0.92229      0.08098  1.0000
  O2          0.04388      0.91514      0.41412  1.0000
  O2          0.89373      0.19645      0.97213  1.0000
  O2          0.77130      0.67782      0.30984  1.0000
  O2          0.28383      0.08590      0.64321  1.0000
  O2          0.07313      0.78106      0.47729  1.0000
  O2          0.18898      0.28889      0.80917  1.0000
  O2          0.67596      0.89124      0.14441  1.0000
  O2          0.17962      0.88205      0.35261  1.0000
  O2          0.68410      0.78957      0.01638  1.0000
  O2          0.08255      0.29050      0.68423  1.0000
  O2          0.78127      0.08469      0.85124  1.0000
  O2          0.27767      0.19030      0.51751  1.0000
  O2          0.87809      0.68797      0.18157  1.0000
  O2          0.29749      0.62848      0.24628  1.0000
  O2          0.33499      0.66400      0.57964  1.0000
  O2          0.30345      0.66498      0.91208  1.0000
  O2          0.66151      0.34252      0.74827  1.0000
  O3          0.60422      0.29868      0.08421  1.0000
  O2          0.65509      0.30852      0.41557  1.0000
  O2          0.36212      0.32280      0.96668  1.0000
  O2          0.64721      0.02480      0.30359  1.0000
  O2          0.93739      0.61366      0.63534  1.0000
  O2          0.60031      0.65474      0.46667  1.0000
  O2          0.31307      0.94213      0.80051  1.0000
  O2          0.01769      0.36414      0.13117  1.0000
  O2          0.30411      0.35412      0.35880  1.0000
  O2          0.02592      0.66121      0.02529  1.0000
  O2          0.60943      0.94497      0.69275  1.0000
  O2          0.65459      0.61450      0.85913  1.0000
  O2          0.93200      0.31527      0.52717  1.0000
  O2          0.35098      0.02919      0.19564  1.0000
  O3          0.74756      0.27915      0.00180  1.0000
  O2          0.67289      0.44855      0.34159  1.0000
  O2          0.51552      0.21734      0.67482  1.0000
  O2          0.20524      0.68136      0.50747  1.0000
  O2          0.28765      0.52019      0.83912  1.0000
  O2          0.44334      0.75957      0.17427  1.0000
  O2          0.27634      0.74943      0.31989  1.0000
  O2          0.45181      0.68924      0.98506  1.0000
  O2          0.21324      0.52115      0.65271  1.0000
  O2          0.68177      0.21658      0.82047  1.0000
  O2          0.50826      0.28977      0.48713  1.0000
  O2          0.74413      0.45551      0.15078  1.0000
  O3          0.76792      0.54368      0.01804  1.0000
  O2          0.44122      0.23147      0.35911  1.0000
  O2          0.73439      0.20442      0.69244  1.0000
  O2          0.19178      0.44977      0.52491  1.0000
  O2          0.51922      0.73917      0.85733  1.0000
  O2          0.22281      0.76974      0.19278  1.0000
  O2          0.50928      0.76600      0.30279  1.0000
  O2          0.23388      0.45472      0.96832  1.0000
  O2          0.19713      0.73727      0.63549  1.0000
  O2          0.44933      0.20126      0.80289  1.0000
  O2          0.72540      0.52108      0.46998  1.0000
  O2          0.76148      0.24191      0.13281  1.0000
  O2          0.21559      0.31327      0.89416  1.0000
  O2          0.65335      0.89286      0.22970  1.0000
  O2          0.06934      0.75422      0.56217  1.0000
  O2          0.74396      0.65953      0.39493  1.0000
  O2          0.30550      0.07780      0.72829  1.0000
  O2          0.88510      0.22274      0.05946  1.0000
  O2          0.29766      0.21548      0.43236  1.0000
  O2          0.87979      0.66001      0.09574  1.0000
  O2          0.75286      0.07954      0.76607  1.0000
  O2          0.66246      0.75790      0.93161  1.0000
  O2          0.07087      0.30999      0.59950  1.0000
  O2          0.20788      0.89275      0.26770  1.0000
  O2          0.57115      0.55094      0.98805  1.0000
  O2          0.41839      0.00735      0.32417  1.0000
  O2          0.95419      0.40144      0.65536  1.0000
  O2          0.38639      0.42635      0.48694  1.0000
  O2          0.54252      0.95788      0.82068  1.0000
  O2          0.99944      0.57157      0.14894  1.0000
  O2          0.53310      0.56824      0.33899  1.0000
  O2          0.00228      0.43166      0.00521  1.0000
  O2          0.39400      0.95823      0.67249  1.0000
  O2          0.42670      0.39929      0.84020  1.0000
  O2          0.94562      0.54369      0.50724  1.0000
  O2          0.56785      0.01853      0.17579  1.0000
  O2          0.55944      0.14860      0.25134  1.0000
  O2          0.81258      0.40330      0.58198  1.0000
  O2          0.57254      0.41166      0.91466  1.0000
  O2          0.39961      0.82114      0.74621  1.0000
  O2          0.13843      0.56819      0.07826  1.0000
  O2          0.38993      0.56456      0.41248  1.0000
  F           0.42675      0.88674      0.24771  1.0000
  F           0.07496      0.53412      0.58014  1.0000
  F           0.43379      0.54085      0.91243  1.0000
  F           0.53154      0.08329      0.74660  1.0000
  F           0.84528      0.42999      0.07040  1.0000
  F           0.52284      0.43531      0.41303  1.0000
