data_cif

_audit_creation_method             'generated by GULP'

_symmetry_space_group_name_H-M     'P 1'
_symmetry_Int_Tables_number        1
_symmetry_cell_setting             triclinic

_cell_length_a                       11.9417
_cell_length_b                       11.9267
_cell_length_c                       29.4393
_cell_angle_alpha                   89.6417
_cell_angle_beta                    90.1471
_cell_angle_gamma                  119.7126

loop_
_atom_site_label
_atom_site_fract_x
_atom_site_fract_y
_atom_site_fract_z
_atom_site_occupancy
  Si          0.69960      0.37570      0.03389  1.0000
  Si          0.62511      0.31765      0.36757  1.0000
  Si          0.67940      0.28432      0.69804  1.0000
  Si          0.30170      0.61203      0.53395  1.0000
  Si          0.38556      0.66657      0.86782  1.0000
  Si          0.32986      0.70094      0.20040  1.0000
  Si          0.38419      0.69880      0.30121  1.0000
  Si          0.32703      0.61538      0.97010  1.0000
  Si          0.30007      0.66428      0.63467  1.0000
  Si          0.62596      0.28662      0.79868  1.0000
  Si          0.67927      0.37091      0.46810  1.0000
  Si          0.70843      0.32456      0.13566  1.0000
  Ge          0.53176      0.42453      0.96601  1.0000
  Si          0.58730      0.10874      0.30245  1.0000
  Si          0.89044      0.45926      0.63412  1.0000
  Si          0.47381      0.57518      0.46869  1.0000
  Si          0.42385      0.87601      0.80094  1.0000
  Si          0.11961      0.53043      0.13512  1.0000
  Si          0.42132      0.52559      0.36693  1.0000
  Si          0.11397      0.57919      0.03373  1.0000
  Si          0.47362      0.87281      0.69946  1.0000
  Si          0.59764      0.45690      0.86686  1.0000
  Si          0.89029      0.40821      0.53254  1.0000
  Si          0.53633      0.11323      0.20074  1.0000
  Si          0.31005      0.38464      0.85379  1.0000
  Si          0.60790      0.90309      0.18617  1.0000
  Si          0.09969      0.68919      0.51893  1.0000
  Si          0.70254      0.59675      0.35299  1.0000
  Si          0.40139      0.08265      0.68471  1.0000
  Si          0.90458      0.29979      0.02017  1.0000
  Si          0.40141      0.29369      0.48321  1.0000
  Si          0.91061      0.60221      0.14965  1.0000
  Si          0.70304      0.08442      0.81452  1.0000
  Si          0.61036      0.69744      0.98867  1.0000
  Si          0.09874      0.38627      0.64928  1.0000
  Si          0.30717      0.90043      0.31656  1.0000
  Si          0.25256      0.32680      0.95612  1.0000
  Si          0.66485      0.90718      0.28687  1.0000
  Si          0.09131      0.73773      0.61968  1.0000
  Si          0.75264      0.65296      0.45376  1.0000
  Si          0.34487      0.07710      0.78550  1.0000
  Si          0.91822      0.25258      0.12078  1.0000
  Si          0.34380      0.24592      0.38239  1.0000
  Si          0.91279      0.65688      0.04864  1.0000
  Si          0.75199      0.07451      0.71391  1.0000
  Si          0.67101      0.73749      0.88547  1.0000
  Si          0.09230      0.33083      0.54852  1.0000
  Si          0.25818      0.91114      0.21583  1.0000
  Si          0.96778      0.11794      0.96921  1.0000
  Si          0.88349      0.84512      0.30246  1.0000
  Si          0.15340      0.01755      0.63501  1.0000
  Si          0.03221      0.87086      0.46850  1.0000
  Si          0.12660      0.13895      0.80248  1.0000
  Si          0.85749      0.97314      0.13671  1.0000
  Si          0.12617      0.96666      0.36760  1.0000
  Si          0.85512      0.88035      0.03615  1.0000
  Si          0.03273      0.13884      0.70102  1.0000
  Si          0.88343      0.01972      0.86798  1.0000
  Si          0.15388      0.11258      0.53393  1.0000
  Si          0.97826      0.84873      0.20145  1.0000
  O2          0.93318      0.99923      0.00244  1.0000
  O2          0.00364      0.92504      0.33554  1.0000
  O2          0.07745      0.05941      0.66953  1.0000
  O2          0.07370      0.99065      0.50184  1.0000
  O2          0.00792      0.06038      0.83661  1.0000
  O2          0.93592      0.93181      0.17047  1.0000
  O2          0.34516      0.57501      0.33415  1.0000
  O2          0.42347      0.74697      0.66744  1.0000
  O2          0.23942      0.65411      0.00052  1.0000
  O2          0.66801      0.41375      0.82916  1.0000
  O2          0.58581      0.24002      0.16876  1.0000
  O2          0.76488      0.33147      0.50041  1.0000
  O3          0.58047      0.33751      0.00247  1.0000
  O2          0.76306      0.40839      0.66570  1.0000
  O2          0.66410      0.23346      0.33500  1.0000
  O2          0.42488      0.65154      0.50134  1.0000
  O2          0.24597      0.57935      0.16734  1.0000
  O2          0.34906      0.75065      0.83412  1.0000
  O2          0.11988      0.20907      0.97467  1.0000
  O2          0.79160      0.90787      0.30719  1.0000
  O2          0.08944      0.86302      0.63996  1.0000
  O2          0.87818      0.77949      0.47383  1.0000
  O2          0.21765      0.07469      0.80607  1.0000
  O2          0.91949      0.12702      0.14175  1.0000
  O2          0.21715      0.12100      0.36220  1.0000
  O2          0.91152      0.78369      0.02873  1.0000
  O2          0.87868      0.07401      0.69438  1.0000
  O2          0.79361      0.86488      0.86422  1.0000
  O2          0.09137      0.20461      0.52801  1.0000
  O2          0.13227      0.91228      0.19564  1.0000
  O2          0.93914      0.85809      0.25246  1.0000
  O2          0.13883      0.06036      0.58494  1.0000
  O2          0.93002      0.06353      0.91869  1.0000
  O2          0.07012      0.12814      0.75248  1.0000
  O2          0.87572      0.93344      0.08676  1.0000
  O2          0.07340      0.92671      0.41828  1.0000
  O2          0.89760      0.19951      0.98129  1.0000
  O2          0.80125      0.69330      0.31468  1.0000
  O2          0.30535      0.08468      0.64610  1.0000
  O2          0.10193      0.78799      0.48034  1.0000
  O2          0.21242      0.29016      0.81505  1.0000
  O2          0.70506      0.90289      0.14766  1.0000
  O2          0.20852      0.89719      0.35522  1.0000
  O2          0.70284      0.80848      0.02451  1.0000
  O2          0.10098      0.29008      0.68819  1.0000
  O2          0.80208      0.08818      0.85296  1.0000
  O2          0.30541      0.19423      0.52174  1.0000
  O2          0.90856      0.69838      0.18808  1.0000
  O2          0.32855      0.64230      0.25081  1.0000
  O2          0.35822      0.66651      0.58446  1.0000
  O2          0.33007      0.66463      0.91809  1.0000
  O2          0.68152      0.34144      0.74820  1.0000
  O2          0.65117      0.32526      0.08586  1.0000
  O2          0.68087      0.31492      0.41794  1.0000
  O3          0.36505      0.30820      0.97567  1.0000
  O2          0.67479      0.03936      0.30557  1.0000
  O2          0.95877      0.61539      0.63801  1.0000
  O2          0.62984      0.66270      0.47211  1.0000
  O2          0.33636      0.94510      0.80465  1.0000
  O2          0.05107      0.37405      0.13909  1.0000
  O2          0.33395      0.36930      0.36426  1.0000
  O2          0.04684      0.66878      0.03023  1.0000
  O2          0.62990      0.94091      0.69648  1.0000
  O2          0.68097      0.61562      0.86670  1.0000
  O2          0.95992      0.32096      0.53002  1.0000
  O2          0.38008      0.04426      0.19770  1.0000
  O2          0.77151      0.30043      0.01372  1.0000
  O2          0.70105      0.46171      0.34554  1.0000
  O2          0.53519      0.21601      0.67666  1.0000
  O2          0.23352      0.68831      0.51186  1.0000
  O2          0.31436      0.52169      0.84771  1.0000
  O2          0.47377      0.76984      0.17845  1.0000
  O2          0.30833      0.76631      0.32378  1.0000
  O2          0.47167      0.69293      0.99046  1.0000
  O2          0.23183      0.52055      0.65711  1.0000
  O2          0.69963      0.21696      0.82184  1.0000
  O2          0.53641      0.29487      0.49085  1.0000
  O2          0.77845      0.46751      0.15815  1.0000
  O2          0.78887      0.53239      0.02867  1.0000
  O2          0.46915      0.24491      0.36274  1.0000
  O2          0.75132      0.19970      0.69330  1.0000
  O2          0.21898      0.45611      0.52922  1.0000
  O2          0.53997      0.72978      0.86724  1.0000
  O2          0.25712      0.78488      0.19610  1.0000
  O2          0.54017      0.77971      0.30631  1.0000
  O2          0.26269      0.46086      0.97349  1.0000
  O2          0.21820      0.73917      0.63952  1.0000
  O2          0.46970      0.20536      0.80407  1.0000
  O2          0.75411      0.52710      0.47344  1.0000
  O2          0.79125      0.25059      0.14029  1.0000
  O2          0.24233      0.31577      0.90088  1.0000
  O2          0.68268      0.90619      0.23254  1.0000
  O2          0.09384      0.75846      0.56534  1.0000
  O2          0.77225      0.67078      0.39943  1.0000
  O2          0.32643      0.07793      0.73115  1.0000
  O2          0.91474      0.23101      0.06649  1.0000
  O2          0.32676      0.22480      0.43678  1.0000
  O2          0.91167      0.67519      0.10301  1.0000
  O2          0.77300      0.07949      0.76822  1.0000
  O2          0.68331      0.75349      0.93969  1.0000
  O2          0.09455      0.31200      0.60293  1.0000
  O2          0.23776      0.90746      0.27021  1.0000
  O3          0.60186      0.56570      0.00181  1.0000
  O2          0.44619      0.02541      0.32579  1.0000
  O2          0.97267      0.39988      0.65796  1.0000
  O2          0.41517      0.43333      0.49204  1.0000
  O2          0.56537      0.95671      0.82396  1.0000
  O2          0.03803      0.59065      0.15841  1.0000
  O2          0.56295      0.58280      0.34421  1.0000
  O2          0.03148      0.43828      0.01028  1.0000
  O2          0.41624      0.95732      0.67622  1.0000
  O2          0.45167      0.40389      0.84690  1.0000
  O2          0.97508      0.55004      0.50973  1.0000
  O2          0.59346      0.02892      0.17762  1.0000
  O2          0.58815      0.16418      0.25181  1.0000
  O2          0.83725      0.40788      0.58335  1.0000
  O3          0.60374      0.40159      0.91516  1.0000
  O2          0.42090      0.81983      0.75055  1.0000
  O2          0.17302      0.58224      0.08396  1.0000
  O2          0.42101      0.57753      0.41791  1.0000
  F           0.45839      0.90239      0.25192  1.0000
  F           0.09824      0.53766      0.58477  1.0000
  F           0.47830      0.51619      0.92841  1.0000
  F           0.55023      0.08008      0.75038  1.0000
  F           0.91698      0.45499      0.08532  1.0000
  F           0.55210      0.44571      0.41872  1.0000
