data_cif

_audit_creation_method             'generated by GULP'

_symmetry_space_group_name_H-M     'P 1'
_symmetry_Int_Tables_number        1
_symmetry_cell_setting             triclinic

_cell_length_a                       11.9806
_cell_length_b                       11.9429
_cell_length_c                       29.4629
_cell_angle_alpha                   89.6970
_cell_angle_beta                    89.8915
_cell_angle_gamma                  120.2866

loop_
_atom_site_label
_atom_site_fract_x
_atom_site_fract_y
_atom_site_fract_z
_atom_site_occupancy
  Si          0.69960      0.37570      0.03389  1.0000
  Si          0.60539      0.31747      0.36663  1.0000
  Si          0.65408      0.28255      0.69902  1.0000
  Si          0.27989      0.61117      0.53347  1.0000
  Si          0.35594      0.66159      0.86717  1.0000
  Si          0.31088      0.69804      0.20161  1.0000
  Si          0.36468      0.69802      0.30207  1.0000
  Si          0.30480      0.61296      0.97030  1.0000
  Si          0.27569      0.66231      0.63407  1.0000
  Si          0.59948      0.28261      0.79960  1.0000
  Si          0.65916      0.36918      0.46728  1.0000
  Si          0.69240      0.31830      0.13427  1.0000
  Si          0.51727      0.39857      0.96912  1.0000
  Si          0.56915      0.10899      0.30139  1.0000
  Si          0.86531      0.45440      0.63363  1.0000
  Si          0.45367      0.57512      0.46874  1.0000
  Si          0.39605      0.87325      0.80130  1.0000
  Si          0.10180      0.52794      0.13657  1.0000
  Si          0.40195      0.52508      0.36711  1.0000
  Si          0.10501      0.58649      0.03540  1.0000
  Si          0.44594      0.87087      0.69971  1.0000
  Si          0.56325      0.45400      0.86515  1.0000
  Si          0.86818      0.40468      0.53202  1.0000
  Si          0.51757      0.10830      0.19977  1.0000
  Si          0.27732      0.37999      0.84897  1.0000
  Si          0.58992      0.89942      0.18620  1.0000
  Si          0.07877      0.68761      0.51805  1.0000
  Si          0.68281      0.59719      0.35227  1.0000
  Si          0.37478      0.08070      0.68503  1.0000
  Si          0.90270      0.30227      0.01853  1.0000
  Si          0.38156      0.29315      0.48251  1.0000
  Si          0.89154      0.59728      0.15018  1.0000
  Si          0.67765      0.08227      0.81499  1.0000
  Si          0.58672      0.68409      0.98376  1.0000
  Si          0.07338      0.38246      0.64840  1.0000
  Si          0.28758      0.89898      0.31605  1.0000
  Ge          0.25318      0.34574      0.94913  1.0000
  Si          0.64672      0.90777      0.28692  1.0000
  Si          0.06783      0.73460      0.61870  1.0000
  Si          0.73186      0.65155      0.45299  1.0000
  Si          0.31736      0.07348      0.78583  1.0000
  Si          0.90261      0.24810      0.11962  1.0000
  Si          0.32431      0.24510      0.38196  1.0000
  Si          0.90164      0.65954      0.04980  1.0000
  Si          0.72582      0.07297      0.71420  1.0000
  Si          0.64326      0.73595      0.88147  1.0000
  Si          0.06935      0.32786      0.54771  1.0000
  Si          0.23763      0.90666      0.21538  1.0000
  Si          0.96637      0.11964      0.96662  1.0000
  Si          0.86418      0.84605      0.30095  1.0000
  Si          0.12825      0.01405      0.63374  1.0000
  Si          0.01218      0.86890      0.46740  1.0000
  Si          0.09996      0.13543      0.79905  1.0000
  Si          0.83684      0.96620      0.13437  1.0000
  Si          0.10613      0.96483      0.36639  1.0000
  Si          0.83546      0.87378      0.03307  1.0000
  Si          0.00434      0.13254      0.69875  1.0000
  Si          0.86042      0.02032      0.86681  1.0000
  Si          0.13261      0.11102      0.53283  1.0000
  Si          0.95781      0.84485      0.20006  1.0000
  O2          0.90934      0.99343      0.99937  1.0000
  O2          0.98642      0.92487      0.33323  1.0000
  O2          0.04593      0.05387      0.66570  1.0000
  O2          0.05428      0.99054      0.49983  1.0000
  O2          0.98027      0.06091      0.83324  1.0000
  O2          0.91750      0.92332      0.16604  1.0000
  O2          0.32521      0.57424      0.33505  1.0000
  O2          0.39741      0.74550      0.66743  1.0000
  O2          0.23177      0.66594      0.00294  1.0000
  O2          0.63921      0.40664      0.83207  1.0000
  O2          0.56759      0.23334      0.16666  1.0000
  O2          0.74319      0.32885      0.49950  1.0000
  O2          0.57955      0.33205      0.99966  1.0000
  O2          0.73894      0.40568      0.66587  1.0000
  O2          0.64518      0.23485      0.33367  1.0000
  O2          0.40463      0.65118      0.50128  1.0000
  O2          0.22600      0.57442      0.16927  1.0000
  O2          0.32021      0.74814      0.83467  1.0000
  O3          0.11600      0.19990      0.97069  1.0000
  O2          0.77364      0.90936      0.30700  1.0000
  O2          0.06553      0.85933      0.63908  1.0000
  O2          0.85795      0.77747      0.47347  1.0000
  O2          0.18989      0.07118      0.80571  1.0000
  O2          0.90186      0.12104      0.13985  1.0000
  O2          0.19747      0.11990      0.36157  1.0000
  O2          0.90187      0.78553      0.02904  1.0000
  O2          0.85010      0.07054      0.69350  1.0000
  O2          0.76759      0.86423      0.86155  1.0000
  O2          0.06936      0.20190      0.52744  1.0000
  O2          0.11243      0.90800      0.19518  1.0000
  O2          0.91637      0.86027      0.25015  1.0000
  O2          0.11748      0.05559      0.58321  1.0000
  O2          0.91105      0.06070      0.91705  1.0000
  O2          0.04233      0.11444      0.74900  1.0000
  O2          0.84515      0.92679      0.08338  1.0000
  O2          0.05071      0.92202      0.41669  1.0000
  O2          0.90401      0.20943      0.97927  1.0000
  O2          0.78116      0.69373      0.31346  1.0000
  O2          0.27944      0.08396      0.64666  1.0000
  O2          0.08184      0.78683      0.47948  1.0000
  O2          0.18779      0.28987      0.80722  1.0000
  O2          0.68570      0.89677      0.14776  1.0000
  O2          0.18886      0.89620      0.35451  1.0000
  O2          0.68333      0.78344      0.02134  1.0000
  O2          0.07454      0.28535      0.68702  1.0000
  O2          0.77603      0.08655      0.85355  1.0000
  O2          0.28487      0.19423      0.52124  1.0000
  O2          0.88834      0.69219      0.18896  1.0000
  O2          0.30849      0.63975      0.25200  1.0000
  O2          0.33558      0.66602      0.58398  1.0000
  O2          0.30376      0.66136      0.91805  1.0000
  O2          0.65636      0.34065      0.74924  1.0000
  O2          0.63698      0.31858      0.08384  1.0000
  O2          0.66047      0.31421      0.41690  1.0000
  O3          0.36533      0.30784      0.97403  1.0000
  O2          0.65682      0.04065      0.30486  1.0000
  O2          0.93450      0.61116      0.63681  1.0000
  O2          0.61025      0.66224      0.47175  1.0000
  O2          0.30859      0.94160      0.80497  1.0000
  O2          0.03283      0.37094      0.13925  1.0000
  O2          0.31431      0.36820      0.36406  1.0000
  O2          0.03692      0.67429      0.03256  1.0000
  O2          0.60230      0.93956      0.69688  1.0000
  O2          0.64860      0.61144      0.86312  1.0000
  O2          0.93716      0.31749      0.52914  1.0000
  O2          0.36119      0.03976      0.19696  1.0000
  O2          0.76792      0.30091      0.01219  1.0000
  O2          0.68135      0.46238      0.34472  1.0000
  O2          0.51015      0.21468      0.67739  1.0000
  O2          0.21269      0.68723      0.51105  1.0000
  O2          0.28197      0.51849      0.84484  1.0000
  O2          0.45462      0.76538      0.17923  1.0000
  O2          0.28869      0.76537      0.32418  1.0000
  O2          0.45260      0.68376      0.98911  1.0000
  O2          0.20684      0.51769      0.65627  1.0000
  O2          0.67444      0.21489      0.82230  1.0000
  O2          0.51557      0.29338      0.48993  1.0000
  O2          0.75871      0.46074      0.15755  1.0000
  O2          0.77772      0.53301      0.02913  1.0000
  O2          0.44919      0.24389      0.36206  1.0000
  O2          0.72658      0.19926      0.69424  1.0000
  O2          0.19692      0.45453      0.52850  1.0000
  O2          0.51134      0.72672      0.86479  1.0000
  O2          0.23711      0.78019      0.19627  1.0000
  O2          0.52110      0.78055      0.30695  1.0000
  O3          0.22468      0.45953      0.97744  1.0000
  O2          0.19410      0.73668      0.63873  1.0000
  O2          0.44293      0.20154      0.80490  1.0000
  O2          0.73359      0.52581      0.47234  1.0000
  O2          0.77379      0.24358      0.13845  1.0000
  O3          0.19967      0.29776      0.89228  1.0000
  O2          0.66439      0.90492      0.23265  1.0000
  O2          0.07256      0.75652      0.56442  1.0000
  O2          0.75259      0.67126      0.39869  1.0000
  O2          0.29995      0.07502      0.73152  1.0000
  O2          0.90708      0.23271      0.06537  1.0000
  O2          0.30629      0.22322      0.43629  1.0000
  O2          0.89570      0.67431      0.10413  1.0000
  O2          0.74741      0.07795      0.76846  1.0000
  O2          0.65546      0.74574      0.93565  1.0000
  O2          0.06971      0.30853      0.60204  1.0000
  O2          0.21756      0.90371      0.26973  1.0000
  O2          0.56747      0.54207      0.99085  1.0000
  O2          0.42729      0.02523      0.32468  1.0000
  O2          0.94744      0.39552      0.65708  1.0000
  O2          0.39539      0.43258      0.49174  1.0000
  O2          0.53834      0.95441      0.82399  1.0000
  O2          0.01783      0.58532      0.15944  1.0000
  O2          0.54349      0.58326      0.34382  1.0000
  O2          0.02333      0.44672      0.01125  1.0000
  O2          0.38917      0.95531      0.67655  1.0000
  O2          0.42174      0.40133      0.84333  1.0000
  O2          0.95351      0.54733      0.50914  1.0000
  O2          0.57534      0.02453      0.17710  1.0000
  O2          0.57050      0.16253      0.25043  1.0000
  O2          0.81326      0.40234      0.58278  1.0000
  O2          0.56394      0.40377      0.91624  1.0000
  O2          0.39253      0.81751      0.75076  1.0000
  O2          0.15752      0.58430      0.08607  1.0000
  O2          0.40157      0.57707      0.41801  1.0000
  F           0.43874      0.89965      0.25156  1.0000
  F           0.07552      0.53484      0.58370  1.0000
  F           0.39906      0.49550      0.92226  1.0000
  F           0.52462      0.07982      0.75085  1.0000
  F           0.89551      0.45261      0.08551  1.0000
  F           0.53142      0.44512      0.41786  1.0000
