data_cif

_audit_creation_method             'generated by GULP'

_symmetry_space_group_name_H-M     'P 1'
_symmetry_Int_Tables_number        1
_symmetry_cell_setting             triclinic

_cell_length_a                       12.6043
_cell_length_b                       12.6230
_cell_length_c                       30.7025
_cell_angle_alpha                   90.0632
_cell_angle_beta                    89.9139
_cell_angle_gamma                  119.8572

loop_
_atom_site_label
_atom_site_fract_x
_atom_site_fract_y
_atom_site_fract_z
_atom_site_occupancy
  Ge          0.69960      0.37570      0.03389  1.0000
  Ge          0.62240      0.32186      0.36775  1.0000
  Ge          0.67901      0.28491      0.70124  1.0000
  Ge          0.30104      0.61120      0.53634  1.0000
  Ge          0.38303      0.67095      0.86893  1.0000
  Ge          0.32615      0.70237      0.20264  1.0000
  Ge          0.37427      0.68519      0.30099  1.0000
  Ge          0.31448      0.62696      0.96718  1.0000
  Ge          0.31743      0.67661      0.63448  1.0000
  Ge          0.63335      0.30845      0.79943  1.0000
  Ge          0.69270      0.36345      0.46589  1.0000
  Ge          0.68711      0.31184      0.13259  1.0000
  Ge          0.53070      0.41896      0.96817  1.0000
  Ge          0.57972      0.10714      0.30285  1.0000
  Ge          0.89386      0.45542      0.63438  1.0000
  Ge          0.47504      0.57226      0.47121  1.0000
  Ge          0.42688      0.88692      0.80514  1.0000
  Ge          0.11007      0.53133      0.13652  1.0000
  Ge          0.42343      0.51801      0.36647  1.0000
  Ge          0.09921      0.57560      0.03252  1.0000
  Ge          0.48319      0.89028      0.70131  1.0000
  Ge          0.58342      0.47682      0.86392  1.0000
  Ge          0.90805      0.41290      0.53045  1.0000
  Ge          0.52033      0.09758      0.19894  1.0000
  Ge          0.29750      0.39974      0.84864  1.0000
  Ge          0.59898      0.89093      0.18426  1.0000
  Ge          0.11197      0.69339      0.51482  1.0000
  Ge          0.70843      0.59464      0.34980  1.0000
  Ge          0.40479      0.09592      0.68480  1.0000
  Ge          0.89521      0.29684      0.01596  1.0000
  Ge          0.41612      0.29118      0.48253  1.0000
  Ge          0.88772      0.59303      0.14723  1.0000
  Ge          0.70611      0.10646      0.81662  1.0000
  Ge          0.59248      0.70026      0.98179  1.0000
  Ge          0.11546      0.39337      0.64684  1.0000
  Ge          0.30075      0.88783      0.31611  1.0000
  Ge          0.24947      0.34524      0.95173  1.0000
  Ge          0.65423      0.90103      0.28642  1.0000
  Ge          0.10033      0.73858      0.61828  1.0000
  Ge          0.75602      0.64522      0.45299  1.0000
  Ge          0.35300      0.09278      0.78701  1.0000
  Ge          0.90400      0.24895      0.11893  1.0000
  Ge          0.34484      0.23642      0.38042  1.0000
  Ge          0.89355      0.65226      0.04643  1.0000
  Ge          0.76330      0.09206      0.71517  1.0000
  Ge          0.66136      0.75788      0.87949  1.0000
  Ge          0.11288      0.33442      0.54581  1.0000
  Ge          0.24068      0.89514      0.21456  1.0000
  Ge          0.97457      0.12520      0.96417  1.0000
  Ge          0.87473      0.84661      0.29759  1.0000
  Ge          0.15465      0.01418      0.63032  1.0000
  Ge          0.03185      0.86424      0.46357  1.0000
  Ge          0.13227      0.14725      0.79724  1.0000
  Ge          0.84945      0.97268      0.13035  1.0000
  Ge          0.11799      0.95796      0.36272  1.0000
  Ge          0.84459      0.87981      0.02871  1.0000
  Ge          0.04207      0.14296      0.69609  1.0000
  Ge          0.88868      0.03676      0.86264  1.0000
  Ge          0.16405      0.10862      0.52862  1.0000
  Ge          0.96121      0.84365      0.19606  1.0000
  O1          0.91807      0.98607      0.98842  1.0000
  O1          0.01446      0.92887      0.32182  1.0000
  O1          0.06767      0.06643      0.65476  1.0000
  O1          0.09279      0.00387      0.48788  1.0000
  O1          0.99281      0.06666      0.82180  1.0000
  O1          0.93622      0.92074      0.15487  1.0000
  O1          0.34122      0.56522      0.33536  1.0000
  O1          0.43409      0.75980      0.67048  1.0000
  O1          0.22733      0.66116      0.00087  1.0000
  O1          0.66646      0.43139      0.83240  1.0000
  O1          0.56707      0.22588      0.16728  1.0000
  O1          0.78149      0.32805      0.49830  1.0000
  O1          0.57276      0.33723      0.99966  1.0000
  O1          0.76859      0.40911      0.66508  1.0000
  O1          0.66035      0.23164      0.33324  1.0000
  O1          0.43232      0.65170      0.50307  1.0000
  O1          0.23438      0.57592      0.16746  1.0000
  O1          0.34504      0.76380      0.83596  1.0000
  O1          0.12553      0.22322      0.97661  1.0000
  O1          0.77895      0.90162      0.31080  1.0000
  O1          0.09563      0.86140      0.64126  1.0000
  O1          0.88196      0.76728      0.47735  1.0000
  O1          0.22881      0.09396      0.81126  1.0000
  O1          0.90692      0.12513      0.14169  1.0000
  O1          0.20991      0.11351      0.36257  1.0000
  O1          0.90604      0.78604      0.02625  1.0000
  O1          0.88638      0.08030      0.69691  1.0000
  O1          0.79513      0.88137      0.86135  1.0000
  O1          0.10022      0.20058      0.52613  1.0000
  O1          0.11672      0.90456      0.19608  1.0000
  O1          0.90443      0.86961      0.24269  1.0000
  O1          0.13844      0.02592      0.57527  1.0000
  O1          0.97000      0.09334      0.90950  1.0000
  O1          0.10183      0.12016      0.74250  1.0000
  O1          0.86839      0.96211      0.07535  1.0000
  O1          0.03493      0.89682      0.40911  1.0000
  O1          0.89245      0.19581      0.97684  1.0000
  O1          0.80527      0.69467      0.31038  1.0000
  O1          0.30508      0.09341      0.64517  1.0000
  O1          0.11412      0.79313      0.47565  1.0000
  O1          0.20134      0.29996      0.80909  1.0000
  O1          0.69852      0.89231      0.14461  1.0000
  O1          0.20712      0.89166      0.35650  1.0000
  O1          0.68906      0.79299      0.02222  1.0000
  O1          0.11104      0.29741      0.68792  1.0000
  O1          0.80132      0.10514      0.85680  1.0000
  O1          0.31947      0.19695      0.52289  1.0000
  O1          0.88996      0.68902      0.18810  1.0000
  O1          0.33276      0.62657      0.24900  1.0000
  O1          0.37805      0.66347      0.58600  1.0000
  O1          0.30180      0.66933      0.91523  1.0000
  O1          0.67369      0.36355      0.74704  1.0000
  O1          0.62683      0.32551      0.08393  1.0000
  O1          0.70378      0.32160      0.41362  1.0000
  O1          0.37383      0.32846      0.96011  1.0000
  O1          0.67244      0.04271      0.29364  1.0000
  O1          0.98989      0.61098      0.64364  1.0000
  O1          0.63282      0.66231      0.46285  1.0000
  O1          0.33456      0.95148      0.79522  1.0000
  O1          0.01392      0.37525      0.14496  1.0000
  O1          0.35101      0.36300      0.35706  1.0000
  O1          0.03468      0.66775      0.03618  1.0000
  O1          0.63698      0.97612      0.68971  1.0000
  O1          0.65529      0.63202      0.85535  1.0000
  O1          0.97269      0.32100      0.53524  1.0000
  O1          0.36609      0.01038      0.18842  1.0000
  O1          0.75356      0.28466      0.01181  1.0000
  O1          0.69311      0.45583      0.33699  1.0000
  O1          0.54514      0.21595      0.67057  1.0000
  O1          0.25349      0.70543      0.51201  1.0000
  O1          0.31178      0.53866      0.83708  1.0000
  O1          0.45908      0.76853      0.17122  1.0000
  O1          0.28185      0.74352      0.31719  1.0000
  O1          0.46527      0.71592      0.98374  1.0000
  O1          0.22989      0.53671      0.66009  1.0000
  O1          0.72578      0.25117      0.81650  1.0000
  O1          0.54289      0.27454      0.48347  1.0000
  O1          0.77066      0.45005      0.15948  1.0000
  O1          0.77373      0.53153      0.02026  1.0000
  O1          0.46425      0.21948      0.36210  1.0000
  O1          0.78228      0.23081      0.69963  1.0000
  O1          0.23346      0.45613      0.52055  1.0000
  O1          0.54104      0.77456      0.86239  1.0000
  O1          0.22244      0.75596      0.20014  1.0000
  O1          0.52704      0.78543      0.31104  1.0000
  O1          0.26049      0.47303      0.97589  1.0000
  O1          0.24291      0.75907      0.62857  1.0000
  O1          0.48093      0.20963      0.81075  1.0000
  O1          0.74791      0.51712      0.47579  1.0000
  O1          0.76081      0.22849      0.12817  1.0000
  O1          0.21922      0.33905      0.89679  1.0000
  O1          0.65936      0.87057      0.23188  1.0000
  O1          0.07881      0.74212      0.56293  1.0000
  O1          0.78650      0.65374      0.39794  1.0000
  O1          0.34700      0.12074      0.73228  1.0000
  O1          0.92722      0.24614      0.06361  1.0000
  O1          0.32856      0.23199      0.43634  1.0000
  O1          0.86293      0.65561      0.10106  1.0000
  O1          0.76363      0.07330      0.77079  1.0000
  O1          0.67875      0.76054      0.93535  1.0000
  O1          0.14338      0.33306      0.60070  1.0000
  O1          0.24161      0.91737      0.27006  1.0000
  O1          0.55365      0.55231      0.99249  1.0000
  O1          0.44883      0.99314      0.32757  1.0000
  O1          0.97432      0.38046      0.64430  1.0000
  O1          0.45531      0.43836      0.49425  1.0000
  O1          0.55831      0.00233      0.82912  1.0000
  O1          0.02868      0.60533      0.14681  1.0000
  O1          0.57181      0.59435      0.34725  1.0000
  O1          0.00833      0.44294      0.00350  1.0000
  O1          0.39997      0.95740      0.68432  1.0000
  O1          0.43464      0.40109      0.84530  1.0000
  O1          0.00097      0.54616      0.50222  1.0000
  O1          0.60234      0.02863      0.18236  1.0000
  O1          0.54339      0.14249      0.25248  1.0000
  O1          0.85887      0.43897      0.57921  1.0000
  O1          0.59947      0.44825      0.91751  1.0000
  O1          0.46273      0.84870      0.75508  1.0000
  O1          0.14751      0.55028      0.08142  1.0000
  O1          0.40768      0.54453      0.42020  1.0000
  F           0.42803      0.86226      0.24259  1.0000
  F           0.14387      0.54794      0.57436  1.0000
  F           0.44187      0.57475      0.90694  1.0000
  F           0.57745      0.12719      0.74308  1.0000
  F           0.86555      0.44194      0.07573  1.0000
  F           0.56488      0.41813      0.40773  1.0000
