data_cif

_audit_creation_method             'generated by GULP'

_symmetry_space_group_name_H-M     'P 1'
_symmetry_Int_Tables_number        1
_symmetry_cell_setting             triclinic

_cell_length_a                       11.9397
_cell_length_b                       11.9397
_cell_length_c                       29.4032
_cell_angle_alpha                   90.0241
_cell_angle_beta                    89.9902
_cell_angle_gamma                  120.0048

loop_
_atom_site_label
_atom_site_fract_x
_atom_site_fract_y
_atom_site_fract_z
_atom_site_occupancy
  Si          0.69960      0.37570      0.03389  1.0000
  Si          0.62121      0.32382      0.36707  1.0000
  Si          0.67608      0.29730      0.70044  1.0000
  Si          0.29687      0.62124      0.53349  1.0000
  Si          0.37855      0.67548      0.86686  1.0000
  Si          0.32370      0.70238      0.20010  1.0000
  Si          0.37834      0.70224      0.30089  1.0000
  Si          0.32290      0.62068      0.96760  1.0000
  Si          0.29725      0.67602      0.63428  1.0000
  Si          0.62116      0.29671      0.80123  1.0000
  Si          0.67573      0.37890      0.46784  1.0000
  Si          0.70221      0.32309      0.13467  1.0000
  Si          0.52941      0.41569      0.96847  1.0000
  Si          0.58313      0.11366      0.30183  1.0000
  Si          0.88582      0.46931      0.63508  1.0000
  Si          0.46878      0.58343      0.46809  1.0000
  Si          0.41660      0.88529      0.80146  1.0000
  Si          0.11370      0.53039      0.13469  1.0000
  Si          0.41644      0.53057      0.36625  1.0000
  Si          0.11234      0.58186      0.03280  1.0000
  Si          0.46931      0.88580      0.69962  1.0000
  Si          0.58296      0.46831      0.86670  1.0000
  Si          0.88545      0.41669      0.53323  1.0000
  Si          0.53056      0.11367      0.20005  1.0000
  Si          0.30174      0.39681      0.85221  1.0000
  Si          0.60240      0.90430      0.18548  1.0000
  Si          0.09501      0.69797      0.51882  1.0000
  Si          0.69781      0.60223      0.35211  1.0000
  Si          0.39761      0.09543      0.68545  1.0000
  Si          0.90254      0.30033      0.01887  1.0000
  Si          0.39714      0.30220      0.48250  1.0000
  Si          0.90397      0.60186      0.14913  1.0000
  Si          0.69790      0.09486      0.81585  1.0000
  Si          0.60128      0.69711      0.98264  1.0000
  Si          0.09544      0.39756      0.64926  1.0000
  Si          0.30172      0.90403      0.31594  1.0000
  Si          0.25048      0.33888      0.95299  1.0000
  Si          0.66011      0.91169      0.28632  1.0000
  Si          0.08783      0.74829      0.61967  1.0000
  Si          0.74787      0.66046      0.45293  1.0000
  Si          0.33953      0.08732      0.78628  1.0000
  Si          0.91170      0.25120      0.11968  1.0000
  Si          0.33948      0.25158      0.38167  1.0000
  Si          0.90968      0.65799      0.04826  1.0000
  Si          0.74831      0.08782      0.71501  1.0000
  Si          0.66006      0.74747      0.88186  1.0000
  Si          0.08746      0.33963      0.54841  1.0000
  Si          0.25149      0.91177      0.21512  1.0000
  Si          0.97058      0.12033      0.96802  1.0000
  Si          0.87831      0.84987      0.30124  1.0000
  Si          0.14994      0.02842      0.63457  1.0000
  Si          0.02789      0.87855      0.46792  1.0000
  Si          0.12131      0.14912      0.80126  1.0000
  Si          0.85008      0.97127      0.13455  1.0000
  Si          0.12130      0.97148      0.36674  1.0000
  Si          0.84907      0.87720      0.03340  1.0000
  Si          0.02837      0.14986      0.70009  1.0000
  Si          0.87828      0.02744      0.86675  1.0000
  Si          0.14948      0.12159      0.53342  1.0000
  Si          0.97149      0.84981      0.20005  1.0000
  O2          0.92942      0.99860      0.00062  1.0000
  O2          0.99987      0.92994      0.33396  1.0000
  O2          0.07011      0.07011      0.66732  1.0000
  O2          0.06955      0.00008      0.50067  1.0000
  O2          0.99980      0.06900      0.83399  1.0000
  O2          0.93000      0.92973      0.16729  1.0000
  O2          0.33938      0.57882      0.33364  1.0000
  O2          0.42079      0.76038      0.66701  1.0000
  O2          0.23780      0.65919      0.00023  1.0000
  O2          0.66005      0.41975      0.83421  1.0000
  O2          0.57922      0.23939      0.16764  1.0000
  O2          0.75981      0.33980      0.50073  1.0000
  O2          0.57651      0.33754      0.00111  1.0000
  O2          0.76044      0.42081      0.66771  1.0000
  O2          0.66020      0.23919      0.33439  1.0000
  O2          0.42006      0.66035      0.50060  1.0000
  O2          0.23955      0.57936      0.16712  1.0000
  O2          0.33966      0.75966      0.83395  1.0000
  O2          0.12492      0.21226      0.97346  1.0000
  O2          0.78691      0.91286      0.30669  1.0000
  O2          0.08677      0.87401      0.64004  1.0000
  O2          0.87344      0.78740      0.47330  1.0000
  O2          0.21257      0.08594      0.80661  1.0000
  O2          0.91337      0.12572      0.13996  1.0000
  O2          0.21273      0.12587      0.36128  1.0000
  O2          0.91082      0.78476      0.02782  1.0000
  O2          0.87397      0.08675      0.69460  1.0000
  O2          0.78701      0.87295      0.86147  1.0000
  O2          0.08614      0.21270      0.52807  1.0000
  O2          0.12593      0.91302      0.19472  1.0000
  O2          0.93146      0.86321      0.25063  1.0000
  O2          0.13642      0.06826      0.58399  1.0000
  O2          0.93149      0.06749      0.91734  1.0000
  O2          0.06804      0.13610      0.75067  1.0000
  O2          0.86334      0.93096      0.08398  1.0000
  O2          0.06793      0.93185      0.41733  1.0000
  O2          0.90018      0.20186      0.98023  1.0000
  O2          0.79615      0.69798      0.31341  1.0000
  O2          0.30185      0.09798      0.64674  1.0000
  O2          0.09731      0.79612      0.48011  1.0000
  O2          0.20371      0.30099      0.81345  1.0000
  O2          0.69821      0.90192      0.14675  1.0000
  O2          0.20345      0.90167      0.35464  1.0000
  O2          0.69700      0.79559      0.02135  1.0000
  O2          0.09796      0.30179      0.68797  1.0000
  O2          0.79603      0.09702      0.85454  1.0000
  O2          0.30132      0.20408      0.52122  1.0000
  O2          0.90193      0.69796      0.18782  1.0000
  O2          0.32205      0.64448      0.25048  1.0000
  O2          0.35489      0.67754      0.58387  1.0000
  O2          0.32200      0.67714      0.91719  1.0000
  O2          0.67756      0.35487      0.75088  1.0000
  O2          0.64298      0.32015      0.08439  1.0000
  O2          0.67744      0.32252      0.41748  1.0000
  O2          0.37288      0.32851      0.97137  1.0000
  O2          0.67049      0.04445      0.30479  1.0000
  O2          0.95500      0.62589      0.63807  1.0000
  O2          0.62534      0.67091      0.47117  1.0000
  O2          0.32917      0.95442      0.80455  1.0000
  O2          0.04474      0.37384      0.13787  1.0000
  O2          0.32909      0.37398      0.36328  1.0000
  O2          0.04256      0.66863      0.02978  1.0000
  O2          0.62589      0.95497      0.69661  1.0000
  O2          0.67046      0.62487      0.86365  1.0000
  O2          0.95453      0.32922      0.53014  1.0000
  O2          0.37403      0.04473      0.19692  1.0000
  O2          0.76821      0.30051      0.01156  1.0000
  O2          0.69685      0.46741      0.34468  1.0000
  O2          0.53243      0.22930      0.67808  1.0000
  O2          0.22870      0.69682      0.51124  1.0000
  O2          0.30303      0.53170      0.84459  1.0000
  O2          0.46754      0.77056      0.17791  1.0000
  O2          0.30270      0.77019      0.32332  1.0000
  O2          0.46645      0.69617      0.99006  1.0000
  O2          0.22929      0.53241      0.65666  1.0000
  O2          0.69679      0.22857      0.82348  1.0000
  O2          0.53196      0.30334      0.49010  1.0000
  O2          0.77032      0.46702      0.15681  1.0000
  O2          0.78244      0.53230      0.02900  1.0000
  O2          0.46481      0.24980      0.36214  1.0000
  O2          0.75010      0.21492      0.69549  1.0000
  O2          0.21440      0.46480      0.52870  1.0000
  O2          0.53498      0.74934      0.86211  1.0000
  O2          0.24980      0.78488      0.19538  1.0000
  O2          0.53476      0.78455      0.30581  1.0000
  O2          0.24879      0.46429      0.97247  1.0000
  O2          0.21490      0.75008      0.63923  1.0000
  O2          0.46472      0.21426      0.80600  1.0000
  O2          0.74968      0.53534      0.47266  1.0000
  O2          0.78476      0.24922      0.13953  1.0000
  O2          0.23085      0.32145      0.89855  1.0000
  O2          0.67773      0.90930      0.23189  1.0000
  O2          0.09024      0.76838      0.56525  1.0000
  O2          0.76813      0.67779      0.39851  1.0000
  O2          0.32214      0.09014      0.73186  1.0000
  O2          0.90841      0.23052      0.06527  1.0000
  O2          0.32187      0.23164      0.43609  1.0000
  O2          0.90817      0.67653      0.10267  1.0000
  O2          0.76840      0.09018      0.76943  1.0000
  O2          0.67712      0.76756      0.93630  1.0000
  O2          0.09024      0.32217      0.60283  1.0000
  O2          0.23133      0.90906      0.26955  1.0000
  O2          0.58732      0.55740      0.99160  1.0000
  O2          0.44142      0.02969      0.32491  1.0000
  O2          0.96979      0.41162      0.65817  1.0000
  O2          0.41098      0.44187      0.49127  1.0000
  O2          0.55822      0.96905      0.82462  1.0000
  O2          0.02998      0.58829      0.15786  1.0000
  O2          0.55815      0.58826      0.34318  1.0000
  O2          0.02811      0.44003      0.00979  1.0000
  O2          0.41166      0.96979      0.67652  1.0000
  O2          0.44140      0.41053      0.84351  1.0000
  O2          0.96920      0.55826      0.51005  1.0000
  O2          0.58837      0.03001      0.17675  1.0000
  O2          0.58365      0.16724      0.25095  1.0000
  O2          0.83208      0.41620      0.58418  1.0000
  O2          0.58312      0.41530      0.91766  1.0000
  O2          0.41616      0.83201      0.75050  1.0000
  O2          0.16647      0.58286      0.08366  1.0000
  O2          0.41588      0.58380      0.41714  1.0000
  F           0.45231      0.90483      0.25074  1.0000
  F           0.09464      0.54747      0.58404  1.0000
  F           0.45200      0.54686      0.91745  1.0000
  F           0.54752      0.09461      0.75068  1.0000
  F           0.90370      0.45087      0.08414  1.0000
  F           0.54728      0.45259      0.41731  1.0000
