data_cif

_audit_creation_method             'generated by GULP'

_symmetry_space_group_name_H-M     'P 1'
_symmetry_Int_Tables_number        1
_symmetry_cell_setting             triclinic

_cell_length_a                       12.1383
_cell_length_b                       11.9851
_cell_length_c                       29.7693
_cell_angle_alpha                   90.2188
_cell_angle_beta                    89.7566
_cell_angle_gamma                  119.9253

loop_
_atom_site_label
_atom_site_fract_x
_atom_site_fract_y
_atom_site_fract_z
_atom_site_occupancy
  Si          0.69960      0.37570      0.03389  1.0000
  Si          0.62737      0.33628      0.36112  1.0000
  Si          0.67387      0.32201      0.70302  1.0000
  Si          0.31891      0.65333      0.53628  1.0000
  Si          0.37426      0.67437      0.86649  1.0000
  Si          0.31938      0.69699      0.19655  1.0000
  Ge          0.39106      0.73870      0.29321  1.0000
  Si          0.32114      0.61664      0.96786  1.0000
  Si          0.30124      0.69187      0.63876  1.0000
  Ge          0.60426      0.28936      0.80120  1.0000
  Ge          0.67738      0.39060      0.46236  1.0000
  Si          0.70858      0.32563      0.13343  1.0000
  Si          0.52427      0.40208      0.96869  1.0000
  Si          0.59088      0.12350      0.29800  1.0000
  Si          0.88058      0.47698      0.63496  1.0000
  Si          0.49011      0.62157      0.47189  1.0000
  Si          0.41373      0.89669      0.80669  1.0000
  Si          0.11082      0.52969      0.13081  1.0000
  Ge          0.43549      0.57729      0.36669  1.0000
  Si          0.10765      0.57928      0.03049  1.0000
  Si          0.46733      0.90479      0.70452  1.0000
  Ge          0.55605      0.46225      0.86950  1.0000
  Ge          0.89222      0.43345      0.53044  1.0000
  Si          0.53173      0.11410      0.19630  1.0000
  Si          0.28680      0.39001      0.84912  1.0000
  Si          0.60160      0.89932      0.18433  1.0000
  Si          0.11030      0.72472      0.52006  1.0000
  Si          0.71420      0.62462      0.35177  1.0000
  Si          0.39140      0.11581      0.69307  1.0000
  Si          0.89972      0.29970      0.01846  1.0000
  Ge          0.40664      0.32594      0.48771  1.0000
  Si          0.90752      0.60372      0.14682  1.0000
  Si          0.69745      0.10875      0.82207  1.0000
  Si          0.59794      0.68979      0.98245  1.0000
  Ge          0.09530      0.40591      0.65334  1.0000
  Si          0.30504      0.92250      0.31637  1.0000
  Si          0.24755      0.33022      0.95147  1.0000
  Si          0.67222      0.92025      0.28559  1.0000
  Si          0.08755      0.76035      0.62236  1.0000
  Si          0.76466      0.68396      0.45435  1.0000
  Si          0.32547      0.09462      0.79510  1.0000
  Si          0.91167      0.25019      0.11800  1.0000
  Ge          0.36202      0.29224      0.38627  1.0000
  Si          0.90892      0.65674      0.04679  1.0000
  Si          0.74537      0.10738      0.71960  1.0000
  Si          0.65531      0.74272      0.88105  1.0000
  Ge          0.10291      0.37795      0.55260  1.0000
  Si          0.25327      0.91675      0.21387  1.0000
  Si          0.96700      0.11809      0.96911  1.0000
  Si          0.89426      0.86842      0.29851  1.0000
  Si          0.14325      0.03751      0.64080  1.0000
  Si          0.04131      0.90291      0.46952  1.0000
  Si          0.09958      0.14093      0.80409  1.0000
  Si          0.84878      0.96874      0.13344  1.0000
  Ge          0.13368      0.00785      0.36703  1.0000
  Si          0.84441      0.87267      0.03293  1.0000
  Si          0.01839      0.15518      0.70519  1.0000
  Si          0.86678      0.02563      0.87022  1.0000
  Ge          0.15793      0.14553      0.53934  1.0000
  Si          0.97592      0.85284      0.19754  1.0000
  O2          0.92489      0.99743      0.00220  1.0000
  O3          0.01265      0.95743      0.32781  1.0000
  O2          0.05656      0.07362      0.67190  1.0000
  O3          0.07737      0.01880      0.50192  1.0000
  O2          0.98378      0.06298      0.83750  1.0000
  O2          0.93211      0.93080      0.16508  1.0000
  O1          0.35212      0.61701      0.33241  1.0000
  O2          0.42018      0.78358      0.67101  1.0000
  O2          0.23345      0.65287      0.99876  1.0000
  O1          0.64102      0.41863      0.83477  1.0000
  O2          0.58459      0.23982      0.16482  1.0000
  O1          0.77205      0.35282      0.49398  1.0000
  O2          0.57188      0.33404      0.00548  1.0000
  O2          0.75359      0.43076      0.66532  1.0000
  O2          0.66639      0.25637      0.32593  1.0000
  O2          0.44711      0.70230      0.50577  1.0000
  O2          0.23884      0.58412      0.16041  1.0000
  O2          0.34050      0.76617      0.83658  1.0000
  O2          0.11991      0.20898      0.97239  1.0000
  O2          0.80597      0.93414      0.30074  1.0000
  O2          0.08871      0.88315      0.64519  1.0000
  O2          0.88923      0.80575      0.47451  1.0000
  O2          0.18834      0.07700      0.80980  1.0000
  O2          0.91139      0.12330      0.13726  1.0000
  O1          0.22121      0.16516      0.36187  1.0000
  O2          0.90796      0.78263      0.02723  1.0000
  O2          0.86777      0.10689      0.69780  1.0000
  O2          0.77470      0.87498      0.86364  1.0000
  O1          0.10352      0.24459      0.52775  1.0000
  O2          0.12890      0.91531      0.19302  1.0000
  O2          0.93652      0.86370      0.24759  1.0000
  O3          0.12788      0.07000      0.59112  1.0000
  O2          0.92274      0.06140      0.92002  1.0000
  O2          0.04264      0.12103      0.75462  1.0000
  O2          0.85407      0.92223      0.08351  1.0000
  O3          0.06681      0.94525      0.41838  1.0000
  O2          0.89912      0.20083      0.98106  1.0000
  O2          0.81765      0.72061      0.31538  1.0000
  O2          0.29154      0.11107      0.65586  1.0000
  O2          0.11798      0.82835      0.48355  1.0000
  O2          0.17419      0.29357      0.81494  1.0000
  O2          0.70010      0.90069      0.14693  1.0000
  O3          0.22460      0.93693      0.35529  1.0000
  O2          0.69535      0.78843      0.02005  1.0000
  O3          0.09329      0.30617      0.69693  1.0000
  O2          0.78942      0.09808      0.85902  1.0000
  O1          0.31868      0.23080      0.53211  1.0000
  O2          0.90841      0.70200      0.18464  1.0000
  O3          0.31601      0.63784      0.24420  1.0000
  O2          0.35826      0.69499      0.58891  1.0000
  O2          0.32807      0.67333      0.91805  1.0000
  O3          0.67908      0.38375      0.74998  1.0000
  O2          0.64978      0.32315      0.08443  1.0000
  O3          0.67709      0.32515      0.40994  1.0000
  O2          0.36721      0.32025      0.97051  1.0000
  O2          0.67725      0.05511      0.29986  1.0000
  O2          0.95802      0.63419      0.63747  1.0000
  O2          0.64483      0.69430      0.47337  1.0000
  O2          0.32320      0.96003      0.80821  1.0000
  O2          0.04312      0.37353      0.13530  1.0000
  O1          0.33949      0.41326      0.36875  1.0000
  O2          0.03913      0.66621      0.02759  1.0000
  O2          0.62052      0.97807      0.70175  1.0000
  O3          0.67281      0.63147      0.86201  1.0000
  O1          0.96128      0.34063      0.52725  1.0000
  O2          0.37786      0.04341      0.19410  1.0000
  O2          0.76809      0.30115      0.01163  1.0000
  O2          0.70836      0.48712      0.34592  1.0000
  O2          0.52577      0.24499      0.68421  1.0000
  O2          0.24441      0.72542      0.51759  1.0000
  O2          0.29212      0.52959      0.84674  1.0000
  O2          0.46622      0.76994      0.17690  1.0000
  O3          0.29463      0.78749      0.32324  1.0000
  O2          0.46271      0.68554      0.98925  1.0000
  O3          0.23584      0.55302      0.66123  1.0000
  O3          0.70237      0.23925      0.83133  1.0000
  O1          0.54218      0.31679      0.49371  1.0000
  O2          0.77679      0.46884      0.15568  1.0000
  O2          0.78309      0.53141      0.02839  1.0000
  O3          0.47658      0.27088      0.35679  1.0000
  O2          0.73924      0.23029      0.70177  1.0000
  O3          0.24473      0.50216      0.52857  1.0000
  O2          0.52578      0.73684      0.86243  1.0000
  O2          0.25610      0.79031      0.19720  1.0000
  O3          0.55831      0.80023      0.30870  1.0000
  O2          0.25675      0.46230      0.96901  1.0000
  O2          0.20828      0.75211      0.63999  1.0000
  O3          0.43616      0.21241      0.81907  1.0000
  O3          0.76187      0.55717      0.47078  1.0000
  O2          0.78788      0.24988      0.13846  1.0000
  O2          0.23247      0.31825      0.89782  1.0000
  O2          0.67008      0.90407      0.23094  1.0000
  O2          0.09422      0.77732      0.56864  1.0000
  O2          0.77033      0.69019      0.40002  1.0000
  O2          0.32646      0.11343      0.74046  1.0000
  O2          0.90660      0.23083      0.06427  1.0000
  O1          0.31960      0.24132      0.44130  1.0000
  O2          0.90950      0.67540      0.10060  1.0000
  O2          0.75779      0.10325      0.77332  1.0000
  O2          0.66284      0.75651      0.93571  1.0000
  O1          0.10539      0.32564      0.60789  1.0000
  O2          0.24507      0.92939      0.26752  1.0000
  O2          0.57761      0.54791      0.98900  1.0000
  O2          0.45350      0.03716      0.32091  1.0000
  O3          0.96039      0.41971      0.65898  1.0000
  O3          0.42989      0.48099      0.49328  1.0000
  O2          0.55310      0.98550      0.82792  1.0000
  O2          0.03193      0.59035      0.15474  1.0000
  O3          0.58021      0.61001      0.34256  1.0000
  O2          0.02399      0.43781      0.00827  1.0000
  O2          0.40999      0.99212      0.68669  1.0000
  O3          0.41440      0.39925      0.83440  1.0000
  O3          0.99299      0.58821      0.50899  1.0000
  O2          0.58239      0.02181      0.17699  1.0000
  O2          0.58048      0.16166      0.24666  1.0000
  O3          0.83403      0.43266      0.58467  1.0000
  O3          0.57519      0.39152      0.92130  1.0000
  O2          0.42126      0.85470      0.75521  1.0000
  O2          0.16156      0.58048      0.08030  1.0000
  O3          0.44932      0.63424      0.42194  1.0000
  F           0.44832      0.87912      0.25630  1.0000
  F           0.09238      0.52089      0.58353  1.0000
  F           0.46745      0.51918      0.90732  1.0000
  F           0.55202      0.14611      0.76472  1.0000
  F           0.90580      0.45131      0.08313  1.0000
  F           0.53518      0.43821      0.42056  1.0000
