data_cif

_audit_creation_method             'generated by GULP'

_symmetry_space_group_name_H-M     'P 1'
_symmetry_Int_Tables_number        1
_symmetry_cell_setting             triclinic

_cell_length_a                       11.9144
_cell_length_b                       11.9922
_cell_length_c                       29.4459
_cell_angle_alpha                   90.4719
_cell_angle_beta                    90.0000
_cell_angle_gamma                  119.7857

loop_
_atom_site_label
_atom_site_fract_x
_atom_site_fract_y
_atom_site_fract_z
_atom_site_occupancy
  Ge          0.69960      0.37570      0.03389  1.0000
  Si          0.59738      0.30765      0.36438  1.0000
  Si          0.65764      0.29316      0.69653  1.0000
  Si          0.26950      0.60831      0.52707  1.0000
  Si          0.35018      0.66977      0.85992  1.0000
  Si          0.30122      0.69090      0.19491  1.0000
  Si          0.35294      0.68375      0.29544  1.0000
  Ge          0.31236      0.60121      0.95808  1.0000
  Si          0.27818      0.66926      0.62758  1.0000
  Si          0.59877      0.28601      0.79706  1.0000
  Si          0.64964      0.36860      0.46490  1.0000
  Si          0.66886      0.30714      0.13205  1.0000
  Si          0.51496      0.40649      0.96763  1.0000
  Si          0.55899      0.09394      0.30106  1.0000
  Si          0.86773      0.46594      0.63230  1.0000
  Si          0.44023      0.56863      0.46138  1.0000
  Si          0.39734      0.87728      0.79244  1.0000
  Si          0.09218      0.51883      0.12800  1.0000
  Si          0.39025      0.51097      0.35966  1.0000
  Si          0.09693      0.57042      0.02434  1.0000
  Si          0.45350      0.88297      0.69091  1.0000
  Si          0.56181      0.45808      0.86397  1.0000
  Si          0.86006      0.40828      0.53058  1.0000
  Si          0.50851      0.09963      0.19953  1.0000
  Si          0.27482      0.38658      0.84949  1.0000
  Si          0.58075      0.89194      0.18198  1.0000
  Si          0.06775      0.68677      0.51467  1.0000
  Si          0.67282      0.58297      0.34727  1.0000
  Si          0.38062      0.09175      0.67906  1.0000
  Si          0.88041      0.28364      0.01047  1.0000
  Si          0.36943      0.29014      0.47729  1.0000
  Si          0.87670      0.59033      0.14247  1.0000
  Si          0.67726      0.08497      0.80999  1.0000
  Si          0.58523      0.69327      0.98149  1.0000
  Si          0.07831      0.39394      0.64470  1.0000
  Si          0.27733      0.88516      0.31291  1.0000
  Si          0.22790      0.32195      0.95161  1.0000
  Si          0.63478      0.89232      0.28289  1.0000
  Si          0.06819      0.74255      0.61551  1.0000
  Si          0.72075      0.64720      0.44797  1.0000
  Si          0.31882      0.07847      0.77961  1.0000
  Si          0.88630      0.23856      0.11374  1.0000
  Si          0.31410      0.23436      0.37646  1.0000
  Si          0.89441      0.65496      0.04035  1.0000
  Si          0.73092      0.08459      0.70908  1.0000
  Si          0.63620      0.73835      0.87822  1.0000
  Si          0.06200      0.32971      0.54400  1.0000
  Si          0.22880      0.89844      0.21236  1.0000
  Si          0.95446      0.10378      0.96144  1.0000
  Si          0.85266      0.82911      0.29728  1.0000
  Si          0.13121      0.02286      0.62927  1.0000
  Si          0.00014      0.86624      0.46350  1.0000
  Si          0.09927      0.13879      0.79603  1.0000
  Si          0.83061      0.96349      0.13137  1.0000
  Si          0.09681      0.95405      0.36269  1.0000
  Si          0.83914      0.87313      0.03053  1.0000
  Si          0.01200      0.14780      0.69468  1.0000
  Si          0.85557      0.01342      0.86060  1.0000
  Si          0.12235      0.11067      0.52847  1.0000
  Si          0.94893      0.83812      0.19593  1.0000
  O2          0.90686      0.98845      0.99598  1.0000
  O2          0.97483      0.90964      0.32981  1.0000
  O2          0.05364      0.06727      0.66216  1.0000
  O2          0.04106      0.98846      0.49598  1.0000
  O2          0.97528      0.05359      0.82695  1.0000
  O2          0.91015      0.92332      0.16502  1.0000
  O2          0.31379      0.55854      0.32649  1.0000
  O2          0.40611      0.75818      0.65809  1.0000
  O3          0.21765      0.64358      0.99336  1.0000
  O2          0.63564      0.40715      0.83092  1.0000
  O2          0.55934      0.22837      0.16989  1.0000
  O2          0.73243      0.33108      0.49892  1.0000
  O3          0.56252      0.33332      0.99860  1.0000
  O2          0.74370      0.41837      0.66548  1.0000
  O2          0.63638      0.21873      0.33388  1.0000
  O2          0.38980      0.64583      0.49305  1.0000
  O2          0.21695      0.56976      0.16105  1.0000
  O2          0.31942      0.74854      0.82208  1.0000
  O2          0.10909      0.18297      0.96664  1.0000
  O2          0.76026      0.89086      0.30338  1.0000
  O2          0.06977      0.86976      0.63564  1.0000
  O2          0.84539      0.77583      0.46788  1.0000
  O2          0.19084      0.07564      0.79984  1.0000
  O2          0.88947      0.11687      0.13601  1.0000
  O2          0.18847      0.10715      0.35632  1.0000
  O2          0.91457      0.79393      0.02533  1.0000
  O2          0.85786      0.08605      0.68859  1.0000
  O2          0.76106      0.86004      0.85596  1.0000
  O2          0.05802      0.20108      0.52409  1.0000
  O2          0.10366      0.90127      0.19213  1.0000
  O2          0.90462      0.84316      0.24662  1.0000
  O2          0.11290      0.05800      0.57870  1.0000
  O2          0.91086      0.04887      0.91101  1.0000
  O2          0.04991      0.13375      0.74535  1.0000
  O2          0.85045      0.92804      0.08096  1.0000
  O2          0.04336      0.91891      0.41326  1.0000
  O2          0.89253      0.19280      0.97230  1.0000
  O2          0.77200      0.67787      0.30900  1.0000
  O2          0.28417      0.09385      0.64040  1.0000
  O2          0.06830      0.78342      0.47630  1.0000
  O2          0.17967      0.28797      0.81078  1.0000
  O2          0.67826      0.89241      0.14325  1.0000
  O2          0.17878      0.88306      0.35156  1.0000
  O2          0.68818      0.78410      0.01966  1.0000
  O2          0.08258      0.29904      0.68297  1.0000
  O2          0.77430      0.08450      0.84872  1.0000
  O2          0.27333      0.19349      0.51567  1.0000
  O2          0.88015      0.68894      0.18119  1.0000
  O2          0.29883      0.62979      0.24441  1.0000
  O2          0.33156      0.66653      0.57689  1.0000
  O3          0.29182      0.67596      0.90751  1.0000
  O2          0.65749      0.34712      0.74756  1.0000
  O3          0.60432      0.30095      0.08446  1.0000
  O2          0.65349      0.31038      0.41507  1.0000
  O2          0.35749      0.31980      0.96617  1.0000
  O2          0.64584      0.02395      0.30273  1.0000
  O2          0.93691      0.62185      0.63497  1.0000
  O2          0.59661      0.65698      0.46502  1.0000
  O2          0.31001      0.94653      0.79689  1.0000
  O2          0.01761      0.36363      0.13128  1.0000
  O2          0.30352      0.35506      0.35699  1.0000
  O2          0.02615      0.65711      0.02579  1.0000
  O2          0.61034      0.95296      0.68924  1.0000
  O2          0.64244      0.61328      0.86068  1.0000
  O2          0.92808      0.31993      0.52695  1.0000
  O2          0.35193      0.03038      0.19508  1.0000
  O3          0.74589      0.27636      0.00230  1.0000
  O2          0.67292      0.44855      0.34093  1.0000
  O2          0.51447      0.22648      0.67344  1.0000
  O2          0.20009      0.68348      0.50580  1.0000
  O2          0.27852      0.52104      0.84059  1.0000
  O2          0.44512      0.76049      0.17285  1.0000
  O2          0.27645      0.75043      0.31853  1.0000
  O3          0.45799      0.70055      0.98967  1.0000
  O2          0.21282      0.52836      0.65103  1.0000
  O2          0.67308      0.21642      0.81911  1.0000
  O2          0.50507      0.29343      0.48617  1.0000
  O2          0.74594      0.45587      0.15138  1.0000
  O3          0.76806      0.54275      0.01781  1.0000
  O2          0.44102      0.23292      0.35821  1.0000
  O2          0.73200      0.21142      0.69069  1.0000
  O2          0.18676      0.45255      0.52295  1.0000
  O2          0.50789      0.73502      0.85960  1.0000
  O2          0.22530      0.77165      0.19150  1.0000
  O2          0.50904      0.76549      0.30127  1.0000
  O3          0.21377      0.43416      0.97415  1.0000
  O2          0.19655      0.74399      0.63376  1.0000
  O2          0.44210      0.20526      0.80046  1.0000
  O2          0.72266      0.52436      0.46902  1.0000
  O2          0.76133      0.24190      0.13237  1.0000
  O2          0.20783      0.31949      0.89643  1.0000
  O2          0.65345      0.89236      0.22850  1.0000
  O2          0.06611      0.75887      0.56116  1.0000
  O2          0.74169      0.66031      0.39366  1.0000
  O2          0.30277      0.08277      0.72524  1.0000
  O2          0.88646      0.22226      0.05939  1.0000
  O2          0.29569      0.21804      0.43081  1.0000
  O2          0.87680      0.65742      0.09553  1.0000
  O2          0.74954      0.08455      0.76347  1.0000
  O2          0.65265      0.75465      0.93257  1.0000
  O2          0.06983      0.31660      0.59831  1.0000
  O2          0.20846      0.89414      0.26672  1.0000
  O2          0.55880      0.54847      0.98796  1.0000
  O2          0.41730      0.00807      0.32351  1.0000
  O2          0.95372      0.40966      0.65468  1.0000
  O2          0.38222      0.42919      0.48512  1.0000
  O2          0.53808      0.95810      0.81679  1.0000
  O2          0.00151      0.57268      0.14759  1.0000
  O2          0.53252      0.56725      0.33729  1.0000
  O2          0.99879      0.42844      0.00401  1.0000
  O2          0.39768      0.96884      0.66846  1.0000
  O2          0.41729      0.40423      0.84437  1.0000
  O2          0.94149      0.54772      0.50684  1.0000
  O2          0.56843      0.01881      0.17518  1.0000
  O2          0.55875      0.14881      0.25090  1.0000
  O2          0.81055      0.41092      0.58182  1.0000
  O2          0.56508      0.41502      0.91521  1.0000
  O2          0.39839      0.82810      0.74107  1.0000
  O2          0.13851      0.56189      0.07676  1.0000
  O2          0.38809      0.56599      0.41015  1.0000
  F           0.42755      0.88772      0.24724  1.0000
  F           0.07267      0.53983      0.57969  1.0000
  F           0.40390      0.54817      0.92159  1.0000
  F           0.52828      0.08919      0.74473  1.0000
  F           0.84418      0.42873      0.07038  1.0000
  F           0.52130      0.43708      0.41227  1.0000
