data_cif

_audit_creation_method             'generated by GULP'

_symmetry_space_group_name_H-M     'P 1'
_symmetry_Int_Tables_number        1
_symmetry_cell_setting             triclinic

_cell_length_a                       11.9890
_cell_length_b                       11.9889
_cell_length_c                       29.4315
_cell_angle_alpha                   90.4277
_cell_angle_beta                    90.4268
_cell_angle_gamma                  120.3330

loop_
_atom_site_label
_atom_site_fract_x
_atom_site_fract_y
_atom_site_fract_z
_atom_site_occupancy
  Ge          0.69960      0.37570      0.03389  1.0000
  Si          0.59978      0.31427      0.36473  1.0000
  Si          0.66567      0.30484      0.69795  1.0000
  Si          0.28212      0.61675      0.53102  1.0000
  Si          0.36096      0.66419      0.86505  1.0000
  Si          0.29976      0.69217      0.19847  1.0000
  Si          0.35570      0.69032      0.29897  1.0000
  Si          0.30823      0.61149      0.96493  1.0000
  Si          0.28028      0.67268      0.63152  1.0000
  Ge          0.59669      0.27274      0.79610  1.0000
  Si          0.65818      0.37267      0.46527  1.0000
  Si          0.66760      0.30678      0.13204  1.0000
  Si          0.51870      0.40689      0.96678  1.0000
  Si          0.56144      0.10007      0.30142  1.0000
  Si          0.87209      0.46517      0.63015  1.0000
  Si          0.45199      0.57669      0.46595  1.0000
  Si          0.39821      0.87814      0.80192  1.0000
  Si          0.08943      0.52083      0.13124  1.0000
  Si          0.39576      0.52045      0.36404  1.0000
  Si          0.09427      0.57422      0.02805  1.0000
  Si          0.45163      0.88301      0.69874  1.0000
  Si          0.56554      0.45370      0.86321  1.0000
  Si          0.87237      0.41102      0.52858  1.0000
  Si          0.50728      0.10036      0.19985  1.0000
  Si          0.28380      0.38676      0.85006  1.0000
  Si          0.57889      0.89246      0.18392  1.0000
  Si          0.08099      0.69266      0.51533  1.0000
  Si          0.67607      0.59151      0.34990  1.0000
  Si          0.38040      0.09688      0.68611  1.0000
  Si          0.88070      0.28523      0.01133  1.0000
  Si          0.38093      0.29639      0.48008  1.0000
  Si          0.87555      0.59205      0.14387  1.0000
  Si          0.68720      0.09169      0.81865  1.0000
  Si          0.58566      0.68864      0.97993  1.0000
  Si          0.07999      0.39356      0.64607  1.0000
  Si          0.27979      0.89145      0.31466  1.0000
  Si          0.23916      0.33225      0.95066  1.0000
  Si          0.63781      0.89916      0.28496  1.0000
  Si          0.07283      0.74520      0.61608  1.0000
  Si          0.73021      0.65310      0.45073  1.0000
  Si          0.31407      0.07874      0.78848  1.0000
  Si          0.88348      0.23857      0.11471  1.0000
  Si          0.31935      0.24223      0.37926  1.0000
  Si          0.89364      0.65832      0.04150  1.0000
  Si          0.73388      0.08896      0.71528  1.0000
  Si          0.64019      0.73325      0.87933  1.0000
  Si          0.07328      0.33464      0.54503  1.0000
  Si          0.22725      0.89962      0.21392  1.0000
  Si          0.96271      0.11161      0.96468  1.0000
  Si          0.85548      0.83712      0.29893  1.0000
  Si          0.13210      0.02463      0.63246  1.0000
  Si          0.01157      0.87141      0.46552  1.0000
  Si          0.09726      0.13704      0.79850  1.0000
  Si          0.82639      0.96214      0.13299  1.0000
  Si          0.10104      0.96087      0.36447  1.0000
  Si          0.83537      0.87517      0.03149  1.0000
  Si          0.01031      0.14606      0.69699  1.0000
  Si          0.86082      0.00969      0.86532  1.0000
  Si          0.13532      0.11697      0.53106  1.0000
  Si          0.94783      0.84035      0.19753  1.0000
  O2          0.91571      0.99972      0.00124  1.0000
  O2          0.97907      0.91759      0.33139  1.0000
  O2          0.04719      0.06372      0.66334  1.0000
  O2          0.05486      0.99338      0.49860  1.0000
  O2          0.97272      0.05673      0.82876  1.0000
  O2          0.90873      0.92528      0.16665  1.0000
  O2          0.31805      0.56763      0.33142  1.0000
  O2          0.40330      0.75960      0.66507  1.0000
  O2          0.22211      0.64909      0.99762  1.0000
  O3          0.64024      0.40850      0.83147  1.0000
  O2          0.55757      0.22803      0.16953  1.0000
  O2          0.74476      0.33362      0.49655  1.0000
  O3          0.56385      0.33217      0.99853  1.0000
  O2          0.74443      0.41488      0.66048  1.0000
  O2          0.63884      0.22768      0.33345  1.0000
  O2          0.40481      0.65440      0.49856  1.0000
  O2          0.21285      0.56916      0.16490  1.0000
  O2          0.32335      0.75029      0.83235  1.0000
  O2          0.11618      0.20323      0.97102  1.0000
  O2          0.76502      0.90030      0.30480  1.0000
  O2          0.07046      0.87028      0.63626  1.0000
  O2          0.85738      0.78026      0.47107  1.0000
  O2          0.17689      0.06248      0.80367  1.0000
  O2          0.88586      0.11649      0.13695  1.0000
  O2          0.19219      0.11506      0.35892  1.0000
  O2          0.90990      0.79551      0.02630  1.0000
  O2          0.85596      0.08659      0.69303  1.0000
  O2          0.76922      0.85622      0.85897  1.0000
  O2          0.07214      0.20743      0.52519  1.0000
  O2          0.10217      0.90199      0.19373  1.0000
  O2          0.90560      0.84762      0.24825  1.0000
  O2          0.12483      0.06685      0.58174  1.0000
  O2          0.92498      0.04744      0.91500  1.0000
  O2          0.05130      0.13187      0.74698  1.0000
  O2          0.84056      0.92111      0.08301  1.0000
  O2          0.04872      0.92372      0.41499  1.0000
  O2          0.89450      0.19580      0.97314  1.0000
  O2          0.77290      0.68592      0.31120  1.0000
  O2          0.28236      0.09493      0.64735  1.0000
  O2          0.08170      0.78984      0.47696  1.0000
  O2          0.18338      0.28777      0.81165  1.0000
  O2          0.67489      0.89079      0.14564  1.0000
  O2          0.18261      0.89074      0.35303  1.0000
  O2          0.68464      0.78907      0.01834  1.0000
  O2          0.08166      0.29756      0.68435  1.0000
  O2          0.77662      0.07789      0.85685  1.0000
  O2          0.28652      0.19956      0.51879  1.0000
  O2          0.87752      0.69010      0.18264  1.0000
  O2          0.29873      0.63241      0.24822  1.0000
  O2          0.34004      0.67372      0.58176  1.0000
  O2          0.30386      0.66858      0.91499  1.0000
  O3          0.67327      0.36822      0.74589  1.0000
  O3          0.60418      0.29914      0.08411  1.0000
  O2          0.65728      0.31517      0.41500  1.0000
  O2          0.36091      0.32337      0.96864  1.0000
  O2          0.64889      0.03172      0.30404  1.0000
  O2          0.94161      0.62171      0.63411  1.0000
  O2          0.60876      0.66420      0.46891  1.0000
  O2          0.31049      0.94583      0.80313  1.0000
  O2          0.01525      0.36483      0.13254  1.0000
  O2          0.30825      0.36369      0.36108  1.0000
  O2          0.02655      0.66191      0.02685  1.0000
  O2          0.60763      0.95719      0.69744  1.0000
  O2          0.64907      0.61149      0.86135  1.0000
  O2          0.94072      0.32356      0.52596  1.0000
  O2          0.35074      0.03084      0.19588  1.0000
  O3          0.74835      0.27908      0.00209  1.0000
  O2          0.67431      0.45674      0.34214  1.0000
  O2          0.51577      0.22863      0.67862  1.0000
  O2          0.21512      0.69276      0.50868  1.0000
  O2          0.28325      0.52066      0.84180  1.0000
  O2          0.44218      0.75962      0.17582  1.0000
  O2          0.27969      0.75732      0.32131  1.0000
  O2          0.45176      0.68920      0.98818  1.0000
  O2          0.21283      0.53027      0.65417  1.0000
  O3          0.69333      0.22403      0.82789  1.0000
  O2          0.51571      0.29814      0.48785  1.0000
  O2          0.74381      0.45668      0.15137  1.0000
  O3          0.76933      0.54413      0.01859  1.0000
  O2          0.44339      0.24015      0.35940  1.0000
  O2          0.73034      0.21275      0.69670  1.0000
  O2          0.19949      0.46027      0.52580  1.0000
  O2          0.51721      0.73974      0.85937  1.0000
  O2          0.22312      0.77144      0.19414  1.0000
  O2          0.51217      0.77295      0.30418  1.0000
  O2          0.23268      0.45525      0.97061  1.0000
  O2          0.20101      0.74933      0.63585  1.0000
  O3          0.42827      0.20304      0.81140  1.0000
  O2          0.73230      0.52907      0.47059  1.0000
  O2          0.75970      0.24211      0.13329  1.0000
  O2          0.21394      0.31316      0.89631  1.0000
  O2          0.65324      0.89645      0.23057  1.0000
  O2          0.07458      0.76280      0.56166  1.0000
  O2          0.74837      0.66826      0.39633  1.0000
  O2          0.31131      0.09188      0.73316  1.0000
  O2          0.88353      0.22236      0.06038  1.0000
  O2          0.30419      0.22408      0.43366  1.0000
  O2          0.88054      0.66112      0.09682  1.0000
  O2          0.75008      0.08888      0.76961  1.0000
  O2          0.65928      0.75847      0.93368  1.0000
  O2          0.07600      0.31921      0.59942  1.0000
  O2          0.20965      0.89787      0.26833  1.0000
  O2          0.57116      0.55046      0.98891  1.0000
  O2          0.42077      0.01551      0.32446  1.0000
  O2          0.95411      0.40680      0.65393  1.0000
  O2          0.39500      0.43589      0.48890  1.0000
  O2          0.54063      0.96990      0.82318  1.0000
  O2          0.99853      0.57314      0.15061  1.0000
  O2          0.53656      0.57744      0.34109  1.0000
  O2          0.00251      0.43179      0.00681  1.0000
  O2          0.39931      0.97391      0.67937  1.0000
  O2          0.42197      0.40124      0.84108  1.0000
  O2          0.95693      0.55168      0.50554  1.0000
  O2          0.56566      0.01834      0.17606  1.0000
  O2          0.56010      0.15252      0.25096  1.0000
  O2          0.81993      0.41235      0.57904  1.0000
  O2          0.56499      0.40744      0.91500  1.0000
  O2          0.40300      0.83500      0.74968  1.0000
  O2          0.13743      0.56945      0.08030  1.0000
  O2          0.39739      0.57506      0.41499  1.0000
  F           0.42761      0.89038      0.24912  1.0000
  F           0.08207      0.54484      0.58088  1.0000
  F           0.42879      0.54364      0.91499  1.0000
  F           0.54247      0.12815      0.75879  1.0000
  F           0.84423      0.42994      0.07119  1.0000
  F           0.52829      0.44416      0.41499  1.0000
