data_cif

_audit_creation_method             'generated by GULP'

_symmetry_space_group_name_H-M     'P 1'
_symmetry_Int_Tables_number        1
_symmetry_cell_setting             triclinic

_cell_length_a                       11.9129
_cell_length_b                       12.0021
_cell_length_c                       29.4523
_cell_angle_alpha                   89.9296
_cell_angle_beta                    90.7039
_cell_angle_gamma                  119.8800

loop_
_atom_site_label
_atom_site_fract_x
_atom_site_fract_y
_atom_site_fract_z
_atom_site_occupancy
  Ge          0.69960      0.37570      0.03389  1.0000
  Si          0.59758      0.30458      0.36265  1.0000
  Si          0.65258      0.28346      0.69746  1.0000
  Si          0.26847      0.60598      0.53190  1.0000
  Si          0.35880      0.66172      0.86188  1.0000
  Si          0.30489      0.69048      0.19560  1.0000
  Si          0.35433      0.67436      0.29706  1.0000
  Si          0.30552      0.60927      0.96193  1.0000
  Si          0.27187      0.66258      0.63251  1.0000
  Si          0.60154      0.28486      0.79818  1.0000
  Si          0.64839      0.36713      0.46481  1.0000
  Si          0.67104      0.30641      0.13219  1.0000
  Si          0.51959      0.40794      0.96565  1.0000
  Si          0.56092      0.08858      0.30113  1.0000
  Si          0.86027      0.45712      0.63294  1.0000
  Si          0.43605      0.57573      0.46323  1.0000
  Si          0.39649      0.87294      0.79802  1.0000
  Si          0.09400      0.51946      0.12868  1.0000
  Ge          0.40407      0.50631      0.36426  1.0000
  Si          0.09246      0.57194      0.02554  1.0000
  Si          0.44735      0.87497      0.69640  1.0000
  Si          0.56560      0.45848      0.86293  1.0000
  Si          0.85945      0.40557      0.53152  1.0000
  Si          0.51215      0.09834      0.19997  1.0000
  Si          0.28309      0.38583      0.84721  1.0000
  Si          0.58389      0.89188      0.18285  1.0000
  Si          0.06640      0.68355      0.51699  1.0000
  Si          0.67787      0.58514      0.34245  1.0000
  Si          0.37419      0.08210      0.68190  1.0000
  Si          0.88046      0.28494      0.00996  1.0000
  Si          0.36510      0.29008      0.47718  1.0000
  Si          0.87863      0.59045      0.14250  1.0000
  Si          0.67857      0.08315      0.81242  1.0000
  Si          0.58537      0.68865      0.97711  1.0000
  Si          0.07101      0.38517      0.64667  1.0000
  Si          0.27985      0.87875      0.31266  1.0000
  Si          0.23832      0.33098      0.94783  1.0000
  Si          0.63687      0.88792      0.28393  1.0000
  Si          0.06109      0.73491      0.61765  1.0000
  Si          0.71789      0.64981      0.44560  1.0000
  Si          0.31971      0.07474      0.78259  1.0000
  Si          0.88868      0.23899      0.11326  1.0000
  Si          0.30776      0.22867      0.37486  1.0000
  Si          0.89154      0.65685      0.04017  1.0000
  Si          0.72642      0.07621      0.71165  1.0000
  Si          0.64137      0.73636      0.87639  1.0000
  Si          0.06000      0.32569      0.54584  1.0000
  Si          0.23267      0.89755      0.21222  1.0000
  Si          0.96082      0.11187      0.96178  1.0000
  Si          0.85979      0.82921      0.29529  1.0000
  Si          0.12523      0.01512      0.63003  1.0000
  Si          0.00057      0.86313      0.46358  1.0000
  Si          0.10228      0.13701      0.79655  1.0000
  Si          0.83036      0.96254      0.13014  1.0000
  Si          0.09916      0.94347      0.36251  1.0000
  Si          0.83438      0.87524      0.02854  1.0000
  Si          0.00634      0.13761      0.69564  1.0000
  Si          0.86075      0.01405      0.86171  1.0000
  Si          0.12036      0.10706      0.52881  1.0000
  Si          0.95333      0.83945      0.19435  1.0000
  O2          0.91534      0.99688      0.99705  1.0000
  O2          0.98080      0.90738      0.32850  1.0000
  O2          0.04575      0.06073      0.66081  1.0000
  O2          0.04109      0.98807      0.49459  1.0000
  O2          0.97906      0.05652      0.82783  1.0000
  O2          0.91545      0.92258      0.16152  1.0000
  O3          0.31653      0.55394      0.32722  1.0000
  O2          0.39737      0.74829      0.66444  1.0000
  O2          0.21911      0.64656      0.99435  1.0000
  O2          0.64119      0.40765      0.83082  1.0000
  O2          0.56337      0.22788      0.17023  1.0000
  O2          0.73173      0.33071      0.49885  1.0000
  O3          0.56357      0.33298      0.99797  1.0000
  O2          0.73554      0.40736      0.66521  1.0000
  O2          0.63639      0.21385      0.33433  1.0000
  O2          0.39373      0.64696      0.50053  1.0000
  O2          0.21974      0.56983      0.16129  1.0000
  O2          0.31946      0.74722      0.82948  1.0000
  O2          0.11491      0.20243      0.96779  1.0000
  O2          0.76311      0.88478      0.30372  1.0000
  O2          0.06142      0.86172      0.63693  1.0000
  O2          0.84520      0.77372      0.46669  1.0000
  O2          0.19362      0.07414      0.80292  1.0000
  O2          0.89158      0.11628      0.13493  1.0000
  O2          0.19106      0.09476      0.35630  1.0000
  O2          0.90797      0.79386      0.02467  1.0000
  O2          0.85149      0.07487      0.69107  1.0000
  O2          0.76820      0.86076      0.85606  1.0000
  O2          0.05572      0.19750      0.52567  1.0000
  O2          0.10778      0.90086      0.19119  1.0000
  O2          0.90931      0.85034      0.24430  1.0000
  O2          0.11259      0.05049      0.57845  1.0000
  O2          0.92002      0.05175      0.91191  1.0000
  O2          0.05094      0.12225      0.74530  1.0000
  O2          0.83891      0.92453      0.07918  1.0000
  O2          0.04461      0.90890      0.41290  1.0000
  O2          0.89245      0.19546      0.97169  1.0000
  O2          0.78868      0.67740      0.30663  1.0000
  O2          0.27710      0.08426      0.64294  1.0000
  O2          0.06867      0.78204      0.47882  1.0000
  O2          0.18381      0.28808      0.80867  1.0000
  O2          0.68036      0.89181      0.14435  1.0000
  O2          0.18004      0.87211      0.35146  1.0000
  O2          0.68338      0.78942      0.01513  1.0000
  O2          0.07445      0.28933      0.68480  1.0000
  O2          0.77773      0.08422      0.85102  1.0000
  O2          0.27122      0.19360      0.51587  1.0000
  O2          0.88306      0.68895      0.18103  1.0000
  O2          0.30468      0.62924      0.24455  1.0000
  O2          0.32660      0.66311      0.58211  1.0000
  O2          0.30024      0.66365      0.91158  1.0000
  O2          0.65537      0.34106      0.74774  1.0000
  O3          0.60607      0.29982      0.08430  1.0000
  O2          0.64744      0.31151      0.41472  1.0000
  O2          0.36148      0.32260      0.96577  1.0000
  O2          0.64982      0.02089      0.30348  1.0000
  O2          0.92836      0.61298      0.63551  1.0000
  O2          0.59524      0.65967      0.46325  1.0000
  O2          0.30949      0.94255      0.80059  1.0000
  O2          0.02113      0.36417      0.13052  1.0000
  O3          0.28846      0.33944      0.35445  1.0000
  O2          0.02400      0.65943      0.02458  1.0000
  O2          0.60390      0.94405      0.69279  1.0000
  O2          0.65104      0.61396      0.85831  1.0000
  O2          0.92720      0.31743      0.52709  1.0000
  O2          0.35542      0.02980      0.19467  1.0000
  O3          0.74694      0.27887      0.00164  1.0000
  O2          0.67412      0.44723      0.34108  1.0000
  O2          0.50860      0.21529      0.67441  1.0000
  O2          0.19845      0.67949      0.50899  1.0000
  O2          0.28361      0.51963      0.83839  1.0000
  O2          0.44764      0.76138      0.17301  1.0000
  O2          0.27853      0.74493      0.31758  1.0000
  O2          0.45009      0.68829      0.98421  1.0000
  O2          0.20506      0.51927      0.65401  1.0000
  O2          0.67794      0.21639      0.81991  1.0000
  O2          0.50271      0.29571      0.48407  1.0000
  O2          0.74734      0.45598      0.15067  1.0000
  O3          0.76610      0.54322      0.01812  1.0000
  O2          0.44257      0.23902      0.35830  1.0000
  O2          0.72839      0.20304      0.69217  1.0000
  O2          0.18747      0.44992      0.52668  1.0000
  O2          0.51558      0.73858      0.85652  1.0000
  O2          0.22809      0.77040      0.19179  1.0000
  O2          0.51133      0.76394      0.30296  1.0000
  O2          0.23297      0.45405      0.96765  1.0000
  O2          0.18716      0.73394      0.63753  1.0000
  O2          0.44532      0.20093      0.80240  1.0000
  O2          0.71084      0.52090      0.46502  1.0000
  O2          0.76517      0.24322      0.13223  1.0000
  O2          0.21314      0.31309      0.89350  1.0000
  O2          0.65537      0.88938      0.22955  1.0000
  O2          0.06346      0.75401      0.56331  1.0000
  O2          0.73427      0.65903      0.39137  1.0000
  O2          0.30015      0.07729      0.72817  1.0000
  O2          0.88737      0.22354      0.05890  1.0000
  O2          0.29633      0.22085      0.43002  1.0000
  O2          0.88073      0.65933      0.09544  1.0000
  O2          0.74780      0.07838      0.76598  1.0000
  O2          0.65975      0.75700      0.93072  1.0000
  O2          0.06361      0.30956      0.60013  1.0000
  O2          0.21174      0.89218      0.26648  1.0000
  O2          0.56986      0.55059      0.98704  1.0000
  O2          0.41964      0.00335      0.32377  1.0000
  O2          0.94672      0.40128      0.65564  1.0000
  O2          0.38347      0.43090      0.48340  1.0000
  O2          0.53897      0.95866      0.82095  1.0000
  O2          0.00229      0.57088      0.14830  1.0000
  O3          0.54554      0.57551      0.32871  1.0000
  O2          0.00129      0.43071      0.00428  1.0000
  O2          0.38729      0.95651      0.67267  1.0000
  O2          0.42284      0.39866      0.83948  1.0000
  O2          0.93803      0.54583      0.50787  1.0000
  O2          0.57424      0.02034      0.17554  1.0000
  O2          0.56279      0.14833      0.25143  1.0000
  O2          0.80514      0.40328      0.58198  1.0000
  O2          0.57051      0.41165      0.91396  1.0000
  O2          0.39603      0.82145      0.74694  1.0000
  O2          0.13861      0.56661      0.07729  1.0000
  O3          0.38023      0.57905      0.41454  1.0000
  F           0.43396      0.89271      0.24658  1.0000
  F           0.06520      0.53212      0.58041  1.0000
  F           0.43122      0.54076      0.91107  1.0000
  F           0.52654      0.08212      0.74593  1.0000
  F           0.84644      0.43004      0.06983  1.0000
  F           0.49648      0.45516      0.40239  1.0000
