data_cif

_audit_creation_method             'generated by GULP'

_symmetry_space_group_name_H-M     'P 1'
_symmetry_Int_Tables_number        1
_symmetry_cell_setting             triclinic

_cell_length_a                       11.9748
_cell_length_b                       11.9863
_cell_length_c                       29.4556
_cell_angle_alpha                   90.4321
_cell_angle_beta                    90.1407
_cell_angle_gamma                  120.2594

loop_
_atom_site_label
_atom_site_fract_x
_atom_site_fract_y
_atom_site_fract_z
_atom_site_occupancy
  Ge          0.69960      0.37570      0.03389  1.0000
  Si          0.59585      0.31172      0.36508  1.0000
  Si          0.65953      0.29130      0.69552  1.0000
  Si          0.27175      0.61537      0.52854  1.0000
  Si          0.36037      0.66259      0.86485  1.0000
  Si          0.29938      0.69326      0.19671  1.0000
  Si          0.35177      0.68670      0.29699  1.0000
  Si          0.30734      0.60848      0.96506  1.0000
  Si          0.28640      0.67866      0.63022  1.0000
  Si          0.60206      0.28335      0.79780  1.0000
  Si          0.65048      0.37173      0.46575  1.0000
  Si          0.66660      0.30638      0.13193  1.0000
  Si          0.51870      0.40473      0.96658  1.0000
  Si          0.55845      0.09842      0.30135  1.0000
  Si          0.87189      0.46811      0.63220  1.0000
  Si          0.44144      0.57463      0.46303  1.0000
  Si          0.38903      0.86163      0.79722  1.0000
  Si          0.08879      0.52062      0.13049  1.0000
  Si          0.39049      0.51530      0.36132  1.0000
  Si          0.09256      0.57342      0.02745  1.0000
  Ge          0.45443      0.89652      0.69818  1.0000
  Si          0.56466      0.45604      0.86415  1.0000
  Si          0.86241      0.41202      0.53093  1.0000
  Si          0.50597      0.09974      0.19978  1.0000
  Si          0.28454      0.38516      0.84948  1.0000
  Si          0.57848      0.89317      0.18271  1.0000
  Si          0.06991      0.69158      0.51548  1.0000
  Si          0.67133      0.58770      0.34816  1.0000
  Si          0.37559      0.08990      0.67613  1.0000
  Si          0.88053      0.28514      0.01081  1.0000
  Si          0.37112      0.29464      0.47840  1.0000
  Si          0.87443      0.59157      0.14322  1.0000
  Si          0.67758      0.07766      0.81108  1.0000
  Si          0.58593      0.68640      0.97896  1.0000
  Si          0.08213      0.39833      0.64475  1.0000
  Si          0.27574      0.88788      0.31335  1.0000
  Si          0.23891      0.32901      0.94988  1.0000
  Si          0.63445      0.89698      0.28369  1.0000
  Si          0.07235      0.74646      0.61649  1.0000
  Si          0.72065      0.65131      0.44879  1.0000
  Si          0.31598      0.06838      0.77921  1.0000
  Si          0.88362      0.23886      0.11408  1.0000
  Si          0.31422      0.23810      0.37768  1.0000
  Si          0.89249      0.65836      0.04092  1.0000
  Si          0.73432      0.07860      0.70876  1.0000
  Si          0.64185      0.73519      0.87825  1.0000
  Si          0.06308      0.33447      0.54416  1.0000
  Si          0.22559      0.89916      0.21272  1.0000
  Si          0.95993      0.11131      0.96184  1.0000
  Si          0.85133      0.83386      0.29733  1.0000
  Si          0.12942      0.02683      0.62845  1.0000
  Si          0.00105      0.86947      0.46365  1.0000
  Si          0.10440      0.13868      0.79602  1.0000
  Si          0.82611      0.96260      0.13117  1.0000
  Si          0.09580      0.95659      0.36272  1.0000
  Si          0.83441      0.87531      0.02955  1.0000
  Si          0.01933      0.15368      0.69498  1.0000
  Si          0.86149      0.01349      0.86116  1.0000
  Si          0.12232      0.11539      0.52812  1.0000
  Si          0.94610      0.83999      0.19606  1.0000
  O2          0.91065      0.99419      0.99634  1.0000
  O2          0.97599      0.91468      0.32887  1.0000
  O2          0.05107      0.06868      0.66131  1.0000
  O2          0.04329      0.99556      0.49418  1.0000
  O2          0.97847      0.05426      0.82643  1.0000
  O2          0.90811      0.92309      0.16366  1.0000
  O2          0.31319      0.56220      0.32832  1.0000
  O3          0.40692      0.76171      0.66119  1.0000
  O2          0.22184      0.64748      0.99732  1.0000
  O2          0.63862      0.40375      0.83141  1.0000
  O2          0.55701      0.22827      0.16958  1.0000
  O2          0.73377      0.33451      0.49920  1.0000
  O3          0.56385      0.33053      0.99812  1.0000
  O2          0.74756      0.41805      0.66564  1.0000
  O2          0.63513      0.22396      0.33406  1.0000
  O2          0.39235      0.65225      0.49460  1.0000
  O2          0.21321      0.57006      0.16321  1.0000
  O2          0.31839      0.74745      0.83424  1.0000
  O2          0.11373      0.19980      0.96918  1.0000
  O2          0.76044      0.89662      0.30375  1.0000
  O2          0.07418      0.87455      0.63617  1.0000
  O2          0.84657      0.77922      0.46894  1.0000
  O2          0.19358      0.07339      0.80029  1.0000
  O2          0.88618      0.11682      0.13614  1.0000
  O2          0.18802      0.11055      0.35731  1.0000
  O2          0.90956      0.79579      0.02555  1.0000
  O2          0.86695      0.09421      0.68999  1.0000
  O2          0.76924      0.85888      0.85737  1.0000
  O2          0.05978      0.20656      0.52361  1.0000
  O2          0.10066      0.90208      0.19262  1.0000
  O2          0.90048      0.84718      0.24619  1.0000
  O2          0.10714      0.05701      0.57768  1.0000
  O2          0.92173      0.05621      0.91108  1.0000
  O2          0.05922      0.13622      0.74502  1.0000
  O2          0.84086      0.92694      0.08023  1.0000
  O2          0.03997      0.91679      0.41261  1.0000
  O2          0.89345      0.19604      0.97230  1.0000
  O2          0.76976      0.68241      0.30944  1.0000
  O2          0.28222      0.10805      0.64026  1.0000
  O2          0.07061      0.78932      0.47733  1.0000
  O2          0.18545      0.28806      0.81106  1.0000
  O2          0.67477      0.89161      0.14413  1.0000
  O2          0.17754      0.88605      0.35157  1.0000
  O2          0.68330      0.78626      0.01739  1.0000
  O2          0.09046      0.30523      0.68314  1.0000
  O2          0.77565      0.07955      0.84973  1.0000
  O2          0.27456      0.19856      0.51687  1.0000
  O2          0.87637      0.68941      0.18181  1.0000
  O2          0.29685      0.63148      0.24601  1.0000
  O2          0.33221      0.67486      0.57804  1.0000
  O2          0.30253      0.66208      0.91494  1.0000
  O2          0.65697      0.33661      0.74759  1.0000
  O3          0.60386      0.29906      0.08387  1.0000
  O2          0.65234      0.31394      0.41558  1.0000
  O2          0.36066      0.31874      0.96709  1.0000
  O2          0.64540      0.02924      0.30290  1.0000
  O2          0.93917      0.62442      0.63527  1.0000
  O2          0.59815      0.66236      0.46595  1.0000
  O2          0.30561      0.93663      0.79746  1.0000
  O2          0.01538      0.36469      0.13168  1.0000
  O2          0.30335      0.35865      0.35820  1.0000
  O2          0.02505      0.66125      0.02556  1.0000
  O3          0.62164      0.94783      0.68875  1.0000
  O2          0.65017      0.61207      0.85933  1.0000
  O2          0.92954      0.32348      0.52623  1.0000
  O2          0.34958      0.03102      0.19503  1.0000
  O3          0.74818      0.27922      0.00178  1.0000
  O2          0.67094      0.45308      0.34141  1.0000
  O2          0.51454      0.22415      0.67467  1.0000
  O2          0.20139      0.68812      0.50628  1.0000
  O2          0.28737      0.51997      0.84103  1.0000
  O2          0.44195      0.76092      0.17378  1.0000
  O2          0.27519      0.75339      0.31926  1.0000
  O2          0.45205      0.68730      0.98671  1.0000
  O2          0.21579      0.53231      0.65052  1.0000
  O2          0.67363      0.20989      0.81771  1.0000
  O2          0.50578      0.29690      0.48685  1.0000
  O2          0.74226      0.45657      0.15054  1.0000
  O3          0.76777      0.54398      0.01842  1.0000
  O2          0.43945      0.23528      0.35896  1.0000
  O2          0.72438      0.20221      0.69166  1.0000
  O2          0.18929      0.45875      0.52407  1.0000
  O2          0.51719      0.73950      0.85951  1.0000
  O2          0.22151      0.77155      0.19218  1.0000
  O2          0.50797      0.77063      0.30236  1.0000
  O2          0.23534      0.45267      0.97068  1.0000
  O2          0.19710      0.74564      0.63578  1.0000
  O2          0.44737      0.19129      0.79792  1.0000
  O2          0.72193      0.52790      0.46946  1.0000
  O2          0.75964      0.24266      0.13257  1.0000
  O2          0.21368      0.31225      0.89566  1.0000
  O2          0.65158      0.89547      0.22927  1.0000
  O2          0.07101      0.76407      0.56212  1.0000
  O2          0.74132      0.66558      0.39442  1.0000
  O2          0.30309      0.07262      0.72498  1.0000
  O2          0.88408      0.22270      0.05970  1.0000
  O2          0.29632      0.22151      0.43197  1.0000
  O2          0.88027      0.66121      0.09614  1.0000
  O2          0.74525      0.07773      0.76396  1.0000
  O2          0.66124      0.75556      0.93260  1.0000
  O2          0.06928      0.31871      0.59838  1.0000
  O2          0.20675      0.89567      0.26702  1.0000
  O2          0.56943      0.54768      0.98856  1.0000
  O2          0.41664      0.01113      0.32339  1.0000
  O2          0.95624      0.41115      0.65509  1.0000
  O2          0.38513      0.43430      0.48622  1.0000
  O2          0.53555      0.95528      0.81734  1.0000
  O2          0.99682      0.57177      0.14996  1.0000
  O2          0.53188      0.57308      0.33824  1.0000
  O2          0.00248      0.43152      0.00576  1.0000
  O3          0.38369      0.96726      0.66254  1.0000
  O2          0.42221      0.39421      0.84107  1.0000
  O2          0.94169      0.55260      0.50704  1.0000
  O2          0.56656      0.02013      0.17530  1.0000
  O2          0.55749      0.15143      0.25086  1.0000
  O2          0.81072      0.41097      0.58212  1.0000
  O2          0.57016      0.40854      0.91476  1.0000
  O3          0.38266      0.80151      0.74859  1.0000
  O2          0.13560      0.56902      0.07938  1.0000
  O2          0.38910      0.57097      0.41166  1.0000
  F           0.42487      0.88913      0.24656  1.0000
  F           0.06661      0.53930      0.57903  1.0000
  F           0.43402      0.53795      0.91310  1.0000
  F           0.50842      0.04116      0.73604  1.0000
  F           0.84479      0.43051      0.07042  1.0000
  F           0.52050      0.44090      0.41208  1.0000
