data_cif

_audit_creation_method             'generated by GULP'

_symmetry_space_group_name_H-M     'P 1'
_symmetry_Int_Tables_number        1
_symmetry_cell_setting             triclinic

_cell_length_a                       11.9400
_cell_length_b                       12.0344
_cell_length_c                       29.3776
_cell_angle_alpha                   90.2170
_cell_angle_beta                    90.7123
_cell_angle_gamma                  120.2904

loop_
_atom_site_label
_atom_site_fract_x
_atom_site_fract_y
_atom_site_fract_z
_atom_site_occupancy
  Ge          0.69960      0.37570      0.03389  1.0000
  Si          0.60311      0.31340      0.36535  1.0000
  Si          0.67340      0.29443      0.69755  1.0000
  Si          0.28413      0.61417      0.53138  1.0000
  Si          0.36075      0.67500      0.86078  1.0000
  Si          0.30136      0.69270      0.19826  1.0000
  Si          0.35709      0.68823      0.29905  1.0000
  Si          0.30414      0.60944      0.96290  1.0000
  Si          0.28898      0.67179      0.63221  1.0000
  Si          0.62717      0.29929      0.79844  1.0000
  Si          0.66171      0.37208      0.46619  1.0000
  Si          0.66814      0.30648      0.13228  1.0000
  Si          0.52088      0.40620      0.96427  1.0000
  Si          0.56477      0.09975      0.30210  1.0000
  Si          0.88030      0.46621      0.63265  1.0000
  Si          0.45234      0.57373      0.46570  1.0000
  Si          0.41355      0.89426      0.79913  1.0000
  Si          0.09064      0.51994      0.13104  1.0000
  Si          0.39665      0.51654      0.36361  1.0000
  Si          0.09228      0.57179      0.02755  1.0000
  Si          0.46148      0.88552      0.69765  1.0000
  Si          0.57938      0.46408      0.86067  1.0000
  Si          0.87586      0.41142      0.53086  1.0000
  Si          0.50898      0.10010      0.20025  1.0000
  Ge          0.30451      0.40701      0.85360  1.0000
  Si          0.58023      0.89345      0.18418  1.0000
  Si          0.08323      0.69122      0.51646  1.0000
  Si          0.67772      0.58850      0.34978  1.0000
  Si          0.39213      0.09513      0.68344  1.0000
  Si          0.87951      0.28374      0.01116  1.0000
  Si          0.38226      0.29443      0.48017  1.0000
  Si          0.87621      0.59119      0.14409  1.0000
  Si          0.69903      0.09647      0.81334  1.0000
  Si          0.58759      0.68972      0.97825  1.0000
  Si          0.08926      0.39316      0.64731  1.0000
  Si          0.28216      0.88974      0.31498  1.0000
  Si          0.23480      0.32464      0.94913  1.0000
  Si          0.63996      0.89844      0.28527  1.0000
  Si          0.07987      0.74487      0.61743  1.0000
  Si          0.73211      0.65110      0.45067  1.0000
  Si          0.33964      0.09693      0.78443  1.0000
  Si          0.88507      0.23837      0.11482  1.0000
  Si          0.32132      0.24009      0.37906  1.0000
  Si          0.89246      0.65726      0.04158  1.0000
  Si          0.74328      0.08570      0.71231  1.0000
  Si          0.64836      0.74353      0.87651  1.0000
  Si          0.07667      0.33351      0.54596  1.0000
  Si          0.22893      0.89876      0.21403  1.0000
  Si          0.96119      0.11070      0.96494  1.0000
  Si          0.85673      0.83421      0.29912  1.0000
  Si          0.14130      0.02421      0.63228  1.0000
  Si          0.01354      0.86994      0.46601  1.0000
  Si          0.11860      0.15544      0.79986  1.0000
  Si          0.82725      0.96229      0.13297  1.0000
  Si          0.10366      0.95889      0.36482  1.0000
  Si          0.83503      0.87407      0.03151  1.0000
  Si          0.02262      0.14637      0.69792  1.0000
  Si          0.87478      0.02142      0.86308  1.0000
  Si          0.13638      0.11499      0.53121  1.0000
  Si          0.94835      0.83883      0.19750  1.0000
  O2          0.91213      0.99635      0.00050  1.0000
  O2          0.98155      0.91459      0.33121  1.0000
  O2          0.06203      0.06631      0.66447  1.0000
  O2          0.05577      0.99280      0.49817  1.0000
  O2          0.99491      0.06110      0.83067  1.0000
  O2          0.90965      0.92371      0.16616  1.0000
  O2          0.31900      0.56476      0.33080  1.0000
  O2          0.41257      0.75892      0.66540  1.0000
  O2          0.21970      0.64605      0.99644  1.0000
  O2          0.66879      0.42319      0.83154  1.0000
  O2          0.55854      0.22759      0.16978  1.0000
  O2          0.74722      0.33397      0.49865  1.0000
  O3          0.56565      0.33330      0.99699  1.0000
  O2          0.75557      0.41690      0.66489  1.0000
  O2          0.64218      0.22640      0.33425  1.0000
  O2          0.40570      0.65140      0.49807  1.0000
  O2          0.21543      0.56999      0.16442  1.0000
  O2          0.33287      0.77372      0.83269  1.0000
  O2          0.11435      0.20275      0.97431  1.0000
  O2          0.76681      0.89800      0.30525  1.0000
  O2          0.07946      0.87049      0.63740  1.0000
  O2          0.85873      0.77857      0.47101  1.0000
  O2          0.21768      0.10017      0.80562  1.0000
  O2          0.88801      0.11637      0.13674  1.0000
  O2          0.19426      0.11238      0.35877  1.0000
  O2          0.90962      0.79456      0.02648  1.0000
  O2          0.86761      0.08405      0.69155  1.0000
  O2          0.77486      0.86825      0.85690  1.0000
  O2          0.07359      0.20592      0.52585  1.0000
  O2          0.10308      0.90085      0.19364  1.0000
  O2          0.90528      0.84549      0.24803  1.0000
  O2          0.12554      0.06203      0.58148  1.0000
  O2          0.92560      0.04998      0.91492  1.0000
  O2          0.06273      0.13159      0.74820  1.0000
  O2          0.83901      0.92051      0.08270  1.0000
  O2          0.05126      0.92138      0.41525  1.0000
  O2          0.89108      0.19323      0.97322  1.0000
  O2          0.77451      0.68340      0.31099  1.0000
  O2          0.29409      0.09498      0.64445  1.0000
  O2          0.08373      0.78889      0.47813  1.0000
  O3          0.18937      0.30172      0.81145  1.0000
  O2          0.67573      0.89209      0.14551  1.0000
  O2          0.18581      0.88919      0.35352  1.0000
  O2          0.68343      0.78589      0.01777  1.0000
  O2          0.09248      0.29782      0.68548  1.0000
  O2          0.79689      0.09600      0.85221  1.0000
  O2          0.28803      0.19780      0.51879  1.0000
  O2          0.87827      0.68897      0.18262  1.0000
  O2          0.30053      0.63250      0.24792  1.0000
  O2          0.34537      0.67251      0.58170  1.0000
  O2          0.30426      0.66462      0.91264  1.0000
  O2          0.68000      0.35468      0.74791  1.0000
  O3          0.60446      0.29918      0.08398  1.0000
  O2          0.66187      0.31545      0.41574  1.0000
  O2          0.36291      0.32124      0.96505  1.0000
  O2          0.65198      0.03084      0.30424  1.0000
  O2          0.94807      0.62197      0.63553  1.0000
  O2          0.60959      0.66141      0.46819  1.0000
  O2          0.32790      0.96371      0.80169  1.0000
  O2          0.01764      0.36456      0.13234  1.0000
  O2          0.30928      0.36035      0.36006  1.0000
  O2          0.02427      0.65904      0.02592  1.0000
  O2          0.61816      0.95364      0.69399  1.0000
  O2          0.65826      0.62133      0.85949  1.0000
  O2          0.94345      0.32351      0.52720  1.0000
  O2          0.35185      0.03020      0.19588  1.0000
  O3          0.74708      0.27875      0.00205  1.0000
  O2          0.67699      0.45461      0.34196  1.0000
  O2          0.52833      0.22627      0.67510  1.0000
  O2          0.21657      0.68963      0.50865  1.0000
  O3          0.28620      0.53923      0.83601  1.0000
  O2          0.44380      0.76086      0.17533  1.0000
  O2          0.28155      0.75571      0.32115  1.0000
  O2          0.45108      0.68605      0.98351  1.0000
  O2          0.22337      0.52908      0.65414  1.0000
  O2          0.70323      0.23185      0.82067  1.0000
  O2          0.51786      0.29687      0.48780  1.0000
  O2          0.74391      0.45612      0.15114  1.0000
  O3          0.76613      0.54398      0.01911  1.0000
  O2          0.44599      0.23763      0.35956  1.0000
  O2          0.74676      0.21243      0.69250  1.0000
  O2          0.20304      0.45808      0.52620  1.0000
  O2          0.51862      0.73935      0.85873  1.0000
  O2          0.22349      0.77086      0.19376  1.0000
  O2          0.51391      0.77249      0.30418  1.0000
  O2          0.23785      0.45532      0.96698  1.0000
  O2          0.20672      0.74513      0.63683  1.0000
  O2          0.47105      0.21902      0.80390  1.0000
  O2          0.73401      0.52770      0.47081  1.0000
  O2          0.76158      0.24314      0.13332  1.0000
  O3          0.20174      0.29842      0.89651  1.0000
  O2          0.65571      0.89672      0.23071  1.0000
  O2          0.08001      0.76225      0.56287  1.0000
  O2          0.75067      0.66560      0.39612  1.0000
  O2          0.32136      0.09718      0.72972  1.0000
  O2          0.88385      0.22227      0.06040  1.0000
  O2          0.30557      0.22285      0.43348  1.0000
  O2          0.88171      0.66063      0.09692  1.0000
  O2          0.76612      0.08865      0.76680  1.0000
  O2          0.65793      0.75560      0.93144  1.0000
  O2          0.08167      0.31841      0.60036  1.0000
  O2          0.21138      0.89634      0.26847  1.0000
  O2          0.56588      0.54897      0.98458  1.0000
  O2          0.42369      0.01313      0.32463  1.0000
  O2          0.96566      0.41027      0.65569  1.0000
  O2          0.39691      0.43357      0.48854  1.0000
  O2          0.55720      0.97412      0.82240  1.0000
  O2          0.99896      0.57102      0.15058  1.0000
  O2          0.53772      0.57469      0.34036  1.0000
  O2          0.00204      0.42987      0.00616  1.0000
  O2          0.40188      0.96767      0.67488  1.0000
  O3          0.44289      0.40334      0.83463  1.0000
  O2          0.95696      0.55146      0.50715  1.0000
  O2          0.56844      0.01981      0.17605  1.0000
  O2          0.56243      0.15187      0.25141  1.0000
  O2          0.82437      0.41174      0.58167  1.0000
  O2          0.57303      0.41438      0.91271  1.0000
  O2          0.41050      0.83543      0.74877  1.0000
  O2          0.13730      0.56821      0.07975  1.0000
  O2          0.39693      0.57050      0.41444  1.0000
  F           0.42966      0.89031      0.24797  1.0000
  F           0.08607      0.54286      0.58037  1.0000
  F           0.41076      0.51328      0.90219  1.0000
  F           0.54741      0.09617      0.74781  1.0000
  F           0.84573      0.43080      0.07065  1.0000
  F           0.52983      0.44179      0.41354  1.0000
