data_cif

_audit_creation_method             'generated by GULP'

_symmetry_space_group_name_H-M     'P 1'
_symmetry_Int_Tables_number        1
_symmetry_cell_setting             triclinic

_cell_length_a                       11.9635
_cell_length_b                       12.0134
_cell_length_c                       29.3709
_cell_angle_alpha                   89.6956
_cell_angle_beta                    90.2103
_cell_angle_gamma                  120.2975

loop_
_atom_site_label
_atom_site_fract_x
_atom_site_fract_y
_atom_site_fract_z
_atom_site_occupancy
  Ge          0.69960      0.37570      0.03389  1.0000
  Si          0.59144      0.29833      0.36667  1.0000
  Si          0.66176      0.29003      0.69768  1.0000
  Si          0.28260      0.62289      0.53153  1.0000
  Si          0.36375      0.66759      0.86351  1.0000
  Si          0.29460      0.68535      0.19845  1.0000
  Si          0.34709      0.67860      0.29921  1.0000
  Si          0.30874      0.61080      0.96402  1.0000
  Si          0.28355      0.67361      0.63232  1.0000
  Si          0.60863      0.29089      0.79858  1.0000
  Si          0.65892      0.35947      0.46882  1.0000
  Si          0.66435      0.30227      0.13225  1.0000
  Si          0.52087      0.40890      0.96628  1.0000
  Si          0.55278      0.08806      0.30220  1.0000
  Si          0.87328      0.46203      0.63240  1.0000
  Si          0.44322      0.57211      0.46852  1.0000
  Si          0.40288      0.88033      0.79936  1.0000
  Si          0.08675      0.51610      0.13110  1.0000
  Si          0.38231      0.50555      0.36558  1.0000
  Si          0.09398      0.57357      0.02768  1.0000
  Si          0.45572      0.88277      0.69747  1.0000
  Si          0.57062      0.46301      0.86330  1.0000
  Si          0.87980      0.41218      0.53096  1.0000
  Si          0.50223      0.09337      0.20037  1.0000
  Si          0.28879      0.39145      0.84840  1.0000
  Si          0.57449      0.88687      0.18382  1.0000
  Si          0.07983      0.69533      0.51671  1.0000
  Si          0.66824      0.57830      0.35032  1.0000
  Si          0.38211      0.08951      0.68241  1.0000
  Si          0.88119      0.28592      0.01128  1.0000
  Ge          0.38784      0.29979      0.47497  1.0000
  Si          0.87188      0.58645      0.14360  1.0000
  Si          0.68494      0.08996      0.81361  1.0000
  Si          0.58712      0.68888      0.97862  1.0000
  Si          0.08516      0.39324      0.64623  1.0000
  Si          0.27023      0.87844      0.31519  1.0000
  Si          0.24113      0.33308      0.94926  1.0000
  Si          0.62919      0.88816      0.28498  1.0000
  Si          0.07230      0.74276      0.61774  1.0000
  Si          0.72504      0.64363      0.45200  1.0000
  Si          0.32649      0.08144      0.78369  1.0000
  Si          0.88151      0.23513      0.11485  1.0000
  Si          0.30258      0.22279      0.37926  1.0000
  Si          0.89309      0.65775      0.04108  1.0000
  Si          0.73557      0.08347      0.71265  1.0000
  Si          0.64549      0.74072      0.87771  1.0000
  Si          0.08242      0.33693      0.54512  1.0000
  Si          0.22136      0.89158      0.21416  1.0000
  Si          0.96251      0.11386      0.96329  1.0000
  Si          0.84534      0.82413      0.29800  1.0000
  Si          0.13335      0.02143      0.63098  1.0000
  Si          0.00492      0.86951      0.46587  1.0000
  Si          0.10927      0.14342      0.79771  1.0000
  Si          0.82304      0.95793      0.13204  1.0000
  Si          0.09005      0.94706      0.36318  1.0000
  Si          0.83458      0.87467      0.03031  1.0000
  Si          0.01550      0.14433      0.69660  1.0000
  Si          0.86511      0.01984      0.86288  1.0000
  Si          0.13849      0.11445      0.52907  1.0000
  Si          0.94193      0.83234      0.19663  1.0000
  O2          0.91545      0.99908      0.99938  1.0000
  O2          0.96818      0.90062      0.33007  1.0000
  O2          0.05409      0.06415      0.66336  1.0000
  O2          0.04381      0.99150      0.49736  1.0000
  O2          0.98586      0.06313      0.82974  1.0000
  O2          0.90480      0.91793      0.16491  1.0000
  O2          0.30873      0.55501      0.33177  1.0000
  O2          0.40687      0.75759      0.66512  1.0000
  O2          0.22272      0.64805      0.99693  1.0000
  O2          0.64713      0.41404      0.83103  1.0000
  O2          0.55344      0.22230      0.17002  1.0000
  O2          0.75738      0.33154      0.49727  1.0000
  O3          0.56484      0.33315      0.99825  1.0000
  O2          0.74718      0.41270      0.66458  1.0000
  O2          0.62986      0.21316      0.33470  1.0000
  O2          0.40483      0.66290      0.49750  1.0000
  O2          0.20944      0.56404      0.16481  1.0000
  O2          0.32529      0.75365      0.83140  1.0000
  O2          0.11653      0.20335      0.96924  1.0000
  O2          0.75548      0.88740      0.30482  1.0000
  O2          0.07096      0.86744      0.63797  1.0000
  O2          0.85040      0.77127      0.47122  1.0000
  O2          0.20012      0.08073      0.80401  1.0000
  O2          0.88310      0.11176      0.13677  1.0000
  O2          0.18323      0.09949      0.35370  1.0000
  O2          0.90992      0.79552      0.02601  1.0000
  O2          0.86087      0.08273      0.69218  1.0000
  O2          0.77230      0.86629      0.85704  1.0000
  O2          0.08350      0.21379      0.52412  1.0000
  O2          0.09683      0.89478      0.19370  1.0000
  O2          0.89449      0.83646      0.24693  1.0000
  O2          0.11719      0.05760      0.58018  1.0000
  O2          0.92104      0.05415      0.91359  1.0000
  O2          0.05759      0.12987      0.74681  1.0000
  O2          0.83714      0.92046      0.08157  1.0000
  O2          0.03653      0.91571      0.41389  1.0000
  O2          0.89573      0.19842      0.97312  1.0000
  O2          0.76134      0.67208      0.31036  1.0000
  O2          0.28563      0.09134      0.64374  1.0000
  O2          0.07892      0.79219      0.47807  1.0000
  O2          0.19109      0.29487      0.80972  1.0000
  O2          0.67124      0.88669      0.14523  1.0000
  O2          0.17075      0.87460      0.35343  1.0000
  O2          0.68425      0.78792      0.01708  1.0000
  O2          0.08628      0.29626      0.68471  1.0000
  O2          0.78349      0.09065      0.85220  1.0000
  O3          0.28500      0.18585      0.51690  1.0000
  O2          0.87298      0.68286      0.18227  1.0000
  O2          0.29158      0.62345      0.24835  1.0000
  O2          0.34211      0.67824      0.58178  1.0000
  O2          0.30502      0.66724      0.91377  1.0000
  O2          0.66454      0.34832      0.74800  1.0000
  O3          0.60230      0.29682      0.08423  1.0000
  O2          0.64910      0.30346      0.41694  1.0000
  O2          0.36277      0.32334      0.96727  1.0000
  O2          0.63962      0.01892      0.30464  1.0000
  O2          0.94082      0.61793      0.63588  1.0000
  O2          0.60122      0.65296      0.46789  1.0000
  O2          0.31577      0.94909      0.80231  1.0000
  O2          0.01295      0.36037      0.13269  1.0000
  O2          0.29679      0.34984      0.36242  1.0000
  O2          0.02680      0.66175      0.02644  1.0000
  O2          0.61230      0.95125      0.69437  1.0000
  O2          0.65592      0.61932      0.85943  1.0000
  O2          0.94837      0.32591      0.52776  1.0000
  O2          0.34559      0.02389      0.19639  1.0000
  O3          0.74872      0.28008      0.00222  1.0000
  O2          0.66408      0.44275      0.34502  1.0000
  O2          0.51798      0.22298      0.67520  1.0000
  O2          0.21547      0.69881      0.50904  1.0000
  O2          0.28937      0.52540      0.84031  1.0000
  O2          0.43810      0.75437      0.17584  1.0000
  O2          0.27108      0.74488      0.32174  1.0000
  O2          0.45249      0.68861      0.98656  1.0000
  O2          0.21690      0.52962      0.65422  1.0000
  O2          0.68442      0.22328      0.82110  1.0000
  O3          0.52208      0.28450      0.49270  1.0000
  O2          0.73980      0.45115      0.15137  1.0000
  O3          0.76953      0.54437      0.01827  1.0000
  O2          0.43602      0.23059      0.36223  1.0000
  O2          0.73679      0.20953      0.69288  1.0000
  O2          0.20439      0.46729      0.52560  1.0000
  O2          0.52043      0.74321      0.85835  1.0000
  O2          0.21836      0.76500      0.19412  1.0000
  O2          0.50379      0.75980      0.30402  1.0000
  O2          0.23458      0.45485      0.96969  1.0000
  O2          0.19988      0.74534      0.63719  1.0000
  O2          0.45210      0.20796      0.80340  1.0000
  O2          0.72133      0.51615      0.47070  1.0000
  O2          0.75702      0.23806      0.13352  1.0000
  O2          0.21753      0.31667      0.89487  1.0000
  O2          0.64781      0.88916      0.23051  1.0000
  O2          0.07301      0.76305      0.56322  1.0000
  O2          0.73634      0.64980      0.39704  1.0000
  O2          0.30842      0.08408      0.72922  1.0000
  O2          0.88337      0.22173      0.06045  1.0000
  O3          0.27711      0.19566      0.43185  1.0000
  O2          0.87811      0.65763      0.09649  1.0000
  O2          0.75540      0.08572      0.76719  1.0000
  O2          0.66314      0.75996      0.93225  1.0000
  O2          0.08519      0.32158      0.59977  1.0000
  O2          0.20143      0.88624      0.26859  1.0000
  O2          0.57218      0.55079      0.98852  1.0000
  O2          0.41077      0.00272      0.32495  1.0000
  O2          0.95828      0.40486      0.65466  1.0000
  O3          0.38491      0.43767      0.49440  1.0000
  O2          0.54474      0.96465      0.82259  1.0000
  O2          0.99486      0.56728      0.15039  1.0000
  O2          0.52545      0.55711      0.34492  1.0000
  O2          0.00272      0.43255      0.00646  1.0000
  O2          0.39739      0.96530      0.67395  1.0000
  O2          0.42850      0.40544      0.84038  1.0000
  O2          0.95681      0.55397      0.50727  1.0000
  O2          0.56135      0.01289      0.17619  1.0000
  O2          0.55376      0.14315      0.25160  1.0000
  O2          0.82169      0.41002      0.58116  1.0000
  O2          0.57282      0.41393      0.91447  1.0000
  O2          0.40247      0.82848      0.74833  1.0000
  O2          0.13604      0.56649      0.07997  1.0000
  O2          0.38651      0.55896      0.41637  1.0000
  F           0.42173      0.88148      0.24951  1.0000
  F           0.08332      0.54608      0.58065  1.0000
  F           0.43492      0.54332      0.91381  1.0000
  F           0.53477      0.08979      0.74820  1.0000
  F           0.84319      0.42844      0.07119  1.0000
  F           0.49150      0.40461      0.42611  1.0000
