data_cif

_audit_creation_method             'generated by GULP'

_symmetry_space_group_name_H-M     'P 1'
_symmetry_Int_Tables_number        1
_symmetry_cell_setting             triclinic

_cell_length_a                       11.9287
_cell_length_b                       12.0116
_cell_length_c                       29.3679
_cell_angle_alpha                   89.7062
_cell_angle_beta                    90.8693
_cell_angle_gamma                  120.0187

loop_
_atom_site_label
_atom_site_fract_x
_atom_site_fract_y
_atom_site_fract_z
_atom_site_occupancy
  Ge          0.69960      0.37570      0.03389  1.0000
  Si          0.60450      0.30402      0.36540  1.0000
  Si          0.66981      0.29816      0.69523  1.0000
  Si          0.28125      0.60066      0.52783  1.0000
  Si          0.36045      0.66238      0.86056  1.0000
  Si          0.30459      0.69138      0.19561  1.0000
  Si          0.35786      0.68038      0.29634  1.0000
  Si          0.30593      0.61069      0.96108  1.0000
  Si          0.29224      0.65634      0.62860  1.0000
  Si          0.60355      0.28697      0.79743  1.0000
  Si          0.65902      0.36315      0.46617  1.0000
  Si          0.67204      0.30623      0.13243  1.0000
  Si          0.51861      0.40831      0.96627  1.0000
  Si          0.56544      0.09142      0.30223  1.0000
  Si          0.88793      0.46477      0.63312  1.0000
  Si          0.45029      0.56286      0.46214  1.0000
  Si          0.39556      0.87001      0.79407  1.0000
  Si          0.09439      0.52007      0.12839  1.0000
  Si          0.39754      0.50626      0.36024  1.0000
  Si          0.09310      0.57319      0.02492  1.0000
  Si          0.45606      0.87006      0.69109  1.0000
  Si          0.56571      0.45745      0.86325  1.0000
  Si          0.87303      0.40423      0.53168  1.0000
  Si          0.51223      0.09852      0.20038  1.0000
  Si          0.28381      0.38565      0.84701  1.0000
  Si          0.58366      0.89222      0.18289  1.0000
  Si          0.08246      0.68308      0.51577  1.0000
  Si          0.67928      0.57889      0.34786  1.0000
  Ge          0.39944      0.08636      0.68626  1.0000
  Si          0.88017      0.28592      0.00985  1.0000
  Si          0.37830      0.28326      0.47871  1.0000
  Si          0.87940      0.59079      0.14230  1.0000
  Si          0.68154      0.08323      0.81132  1.0000
  Si          0.58522      0.68909      0.97755  1.0000
  Si          0.09028      0.38216      0.64533  1.0000
  Si          0.28291      0.88138      0.31384  1.0000
  Si          0.23783      0.33182      0.94796  1.0000
  Si          0.64056      0.89031      0.28400  1.0000
  Si          0.09016      0.74162      0.61685  1.0000
  Si          0.73071      0.64233      0.44870  1.0000
  Si          0.31515      0.07323      0.78189  1.0000
  Si          0.88908      0.23893      0.11345  1.0000
  Si          0.32190      0.22988      0.37733  1.0000
  Si          0.89199      0.65714      0.03958  1.0000
  Si          0.73749      0.08015      0.70953  1.0000
  Si          0.64153      0.73508      0.87662  1.0000
  Si          0.07224      0.32184      0.54429  1.0000
  Si          0.23228      0.89728      0.21290  1.0000
  Si          0.96007      0.11258      0.96265  1.0000
  Si          0.85796      0.82593      0.29764  1.0000
  Si          0.14764      0.02080      0.63219  1.0000
  Si          0.01103      0.86126      0.46458  1.0000
  Si          0.10292      0.13572      0.79795  1.0000
  Si          0.83058      0.96203      0.13115  1.0000
  Si          0.10406      0.94969      0.36337  1.0000
  Si          0.83431      0.87501      0.02936  1.0000
  Si          0.01698      0.13365      0.69533  1.0000
  Si          0.86019      0.01249      0.86258  1.0000
  Si          0.13195      0.10348      0.53033  1.0000
  Si          0.95186      0.83733      0.19598  1.0000
  O2          0.91521      0.99965      0.99898  1.0000
  O2          0.98231      0.90583      0.32970  1.0000
  O2          0.05365      0.05059      0.66303  1.0000
  O2          0.05197      0.98248      0.49700  1.0000
  O2          0.97935      0.05771      0.82939  1.0000
  O2          0.91299      0.92247      0.16433  1.0000
  O2          0.31970      0.55424      0.32703  1.0000
  O2          0.41813      0.74157      0.66129  1.0000
  O2          0.21912      0.64778      0.99330  1.0000
  O2          0.64160      0.40678      0.83134  1.0000
  O2          0.56395      0.22818      0.17054  1.0000
  O2          0.74346      0.32677      0.50029  1.0000
  O3          0.56210      0.33284      0.99870  1.0000
  O2          0.76921      0.42546      0.66762  1.0000
  O2          0.64323      0.21565      0.33503  1.0000
  O2          0.40085      0.63932      0.49368  1.0000
  O2          0.21996      0.57072      0.16129  1.0000
  O2          0.32186      0.74570      0.82661  1.0000
  O2          0.11424      0.20346      0.96818  1.0000
  O2          0.76642      0.88797      0.30423  1.0000
  O2          0.09405      0.86694      0.63796  1.0000
  O2          0.85617      0.77001      0.46883  1.0000
  O2          0.19516      0.07495      0.80716  1.0000
  O2          0.89276      0.11621      0.13492  1.0000
  O2          0.19593      0.10282      0.35681  1.0000
  O2          0.90746      0.79383      0.02395  1.0000
  O2          0.86275      0.07971      0.68978  1.0000
  O2          0.76896      0.85941      0.85638  1.0000
  O2          0.06791      0.19402      0.52423  1.0000
  O2          0.10670      0.90071      0.19262  1.0000
  O2          0.90672      0.84092      0.24644  1.0000
  O2          0.12109      0.05057      0.58063  1.0000
  O2          0.91672      0.04950      0.91322  1.0000
  O2          0.05031      0.11677      0.74682  1.0000
  O2          0.84068      0.92058      0.08077  1.0000
  O2          0.05119      0.91386      0.41388  1.0000
  O2          0.89220      0.19674      0.97159  1.0000
  O2          0.77735      0.67446      0.30922  1.0000
  O3          0.29482      0.09730      0.64402  1.0000
  O2          0.08067      0.77941      0.47707  1.0000
  O2          0.18396      0.28801      0.80866  1.0000
  O2          0.67966      0.89308      0.14409  1.0000
  O2          0.18553      0.87871      0.35242  1.0000
  O2          0.68308      0.79006      0.01576  1.0000
  O2          0.09220      0.28544      0.68373  1.0000
  O2          0.77535      0.08078      0.85116  1.0000
  O2          0.28329      0.18709      0.51730  1.0000
  O2          0.88324      0.68836      0.18091  1.0000
  O2          0.30256      0.62815      0.24499  1.0000
  O2          0.34582      0.65727      0.57779  1.0000
  O2          0.30147      0.66473      0.91028  1.0000
  O2          0.66044      0.34229      0.74738  1.0000
  O3          0.60662      0.29892      0.08442  1.0000
  O2          0.66195      0.30611      0.41617  1.0000
  O2          0.36056      0.32324      0.96628  1.0000
  O2          0.65226      0.02164      0.30366  1.0000
  O2          0.95766      0.61982      0.63505  1.0000
  O2          0.60693      0.65174      0.46538  1.0000
  O2          0.30959      0.93976      0.79731  1.0000
  O2          0.02178      0.36472      0.13039  1.0000
  O2          0.31058      0.35029      0.35734  1.0000
  O2          0.02468      0.66055      0.02403  1.0000
  O2          0.61408      0.94791      0.69203  1.0000
  O2          0.65090      0.61301      0.85837  1.0000
  O2          0.93916      0.31486      0.52699  1.0000
  O2          0.35544      0.02970      0.19545  1.0000
  O3          0.74666      0.27953      0.00137  1.0000
  O2          0.67940      0.44487      0.34131  1.0000
  O3          0.53326      0.23770      0.67025  1.0000
  O2          0.21267      0.67707      0.50627  1.0000
  O2          0.28603      0.51991      0.83761  1.0000
  O2          0.44758      0.76088      0.17321  1.0000
  O2          0.28178      0.74647      0.31911  1.0000
  O2          0.45023      0.68959      0.98378  1.0000
  O2          0.22712      0.51434      0.65145  1.0000
  O2          0.67734      0.21424      0.81768  1.0000
  O2          0.51454      0.28693      0.48709  1.0000
  O2          0.74837      0.45590      0.15062  1.0000
  O3          0.76664      0.54310      0.01752  1.0000
  O2          0.44780      0.22793      0.35894  1.0000
  O2          0.73339      0.20502      0.69222  1.0000
  O2          0.19812      0.44489      0.52348  1.0000
  O2          0.51749      0.74007      0.85630  1.0000
  O2          0.22730      0.77068      0.19174  1.0000
  O2          0.51420      0.76350      0.30216  1.0000
  O2          0.23307      0.45551      0.96722  1.0000
  O2          0.21364      0.73300      0.63508  1.0000
  O2          0.44825      0.19782      0.80020  1.0000
  O2          0.73160      0.51875      0.46986  1.0000
  O2          0.76599      0.24295      0.13279  1.0000
  O2          0.21314      0.31381      0.89354  1.0000
  O2          0.65766      0.89171      0.22942  1.0000
  O2          0.08755      0.75742      0.56213  1.0000
  O2          0.75028      0.65623      0.39416  1.0000
  O3          0.28939      0.07792      0.72918  1.0000
  O2          0.88672      0.22384      0.05893  1.0000
  O2          0.30437      0.21257      0.43176  1.0000
  O2          0.88102      0.65932      0.09499  1.0000
  O2          0.74918      0.08187      0.76447  1.0000
  O2          0.66057      0.75653      0.93107  1.0000
  O2          0.07843      0.30533      0.59875  1.0000
  O2          0.21351      0.89153      0.26735  1.0000
  O2          0.56857      0.55067      0.98790  1.0000
  O2          0.42398      0.00349      0.32429  1.0000
  O2          0.96927      0.40264      0.65563  1.0000
  O2          0.39359      0.42311      0.48583  1.0000
  O2          0.53879      0.96160      0.81544  1.0000
  O2          0.00314      0.57156      0.14798  1.0000
  O2          0.53910      0.56404      0.33742  1.0000
  O2          0.00127      0.43168      0.00398  1.0000
  O3          0.39699      0.94662      0.66551  1.0000
  O2          0.42303      0.39701      0.83969  1.0000
  O2          0.95379      0.54486      0.50826  1.0000
  O2          0.57230      0.01956      0.17569  1.0000
  O2          0.56372      0.14686      0.25182  1.0000
  O2          0.82572      0.40631      0.58313  1.0000
  O2          0.57048      0.41166      0.91465  1.0000
  O2          0.40006      0.82390      0.74275  1.0000
  O2          0.13948      0.56775      0.07687  1.0000
  O2          0.39657      0.56050      0.41069  1.0000
  F           0.43156      0.88576      0.24680  1.0000
  F           0.08732      0.53124      0.57999  1.0000
  F           0.43263      0.54144      0.91095  1.0000
  F           0.50410      0.08321      0.73491  1.0000
  F           0.84683      0.43019      0.06978  1.0000
  F           0.52987      0.43231      0.41179  1.0000
