data_cif

_audit_creation_method             'generated by GULP'

_symmetry_space_group_name_H-M     'P 1'
_symmetry_Int_Tables_number        1
_symmetry_cell_setting             triclinic

_cell_length_a                       11.9286
_cell_length_b                       12.0106
_cell_length_c                       29.4328
_cell_angle_alpha                   89.9815
_cell_angle_beta                    90.3843
_cell_angle_gamma                  120.0898

loop_
_atom_site_label
_atom_site_fract_x
_atom_site_fract_y
_atom_site_fract_z
_atom_site_occupancy
  Ge          0.69960      0.37570      0.03389  1.0000
  Si          0.59830      0.30812      0.36536  1.0000
  Si          0.65902      0.28443      0.69761  1.0000
  Si          0.27302      0.60588      0.52954  1.0000
  Si          0.36172      0.66118      0.86147  1.0000
  Si          0.30305      0.69517      0.19707  1.0000
  Si          0.35459      0.68531      0.29751  1.0000
  Si          0.30707      0.60873      0.96177  1.0000
  Si          0.27932      0.66349      0.63020  1.0000
  Si          0.60527      0.28307      0.79838  1.0000
  Si          0.65257      0.36594      0.46597  1.0000
  Si          0.66651      0.30722      0.13247  1.0000
  Si          0.51938      0.40665      0.96588  1.0000
  Si          0.56105      0.09613      0.30207  1.0000
  Si          0.86819      0.45761      0.63285  1.0000
  Si          0.44293      0.56709      0.46382  1.0000
  Si          0.40000      0.87171      0.79694  1.0000
  Si          0.09686      0.52144      0.12929  1.0000
  Si          0.39147      0.51137      0.36198  1.0000
  Si          0.09442      0.57352      0.02576  1.0000
  Si          0.45255      0.87462      0.69512  1.0000
  Si          0.56829      0.45643      0.86313  1.0000
  Si          0.86404      0.40391      0.53112  1.0000
  Si          0.50807      0.10194      0.20054  1.0000
  Si          0.28628      0.38474      0.84752  1.0000
  Si          0.58213      0.89645      0.18341  1.0000
  Si          0.07161      0.68357      0.51580  1.0000
  Si          0.67343      0.58370      0.34900  1.0000
  Si          0.38054      0.08291      0.68165  1.0000
  Si          0.88016      0.28493      0.00852  1.0000
  Si          0.37265      0.28785      0.47894  1.0000
  Si          0.87889      0.58930      0.14362  1.0000
  Si          0.68198      0.08153      0.81219  1.0000
  Si          0.58634      0.68746      0.97728  1.0000
  Si          0.07870      0.38607      0.64596  1.0000
  Si          0.27887      0.88599      0.31462  1.0000
  Si          0.23877      0.33011      0.94818  1.0000
  Si          0.63741      0.89562      0.28434  1.0000
  Si          0.06896      0.73568      0.61665  1.0000
  Si          0.72324      0.64511      0.44970  1.0000
  Si          0.32345      0.07342      0.78236  1.0000
  Ge          0.88614      0.23829      0.11314  1.0000
  Si          0.31549      0.23438      0.37808  1.0000
  Si          0.89466      0.65908      0.04142  1.0000
  Si          0.73179      0.07660      0.71135  1.0000
  Si          0.64376      0.73449      0.87650  1.0000
  Si          0.06533      0.32554      0.54516  1.0000
  Si          0.22830      0.89937      0.21408  1.0000
  Si          0.96032      0.11144      0.96166  1.0000
  Si          0.85340      0.83002      0.29823  1.0000
  Si          0.13126      0.01516      0.63077  1.0000
  Si          0.00354      0.86363      0.46486  1.0000
  Si          0.10618      0.13606      0.79671  1.0000
  Si          0.82860      0.95956      0.13162  1.0000
  Si          0.09829      0.95357      0.36392  1.0000
  Si          0.83377      0.87503      0.02934  1.0000
  Si          0.01216      0.13847      0.69580  1.0000
  Si          0.86319      0.01226      0.86174  1.0000
  Si          0.12576      0.10711      0.52994  1.0000
  Si          0.94721      0.83376      0.19702  1.0000
  O2          0.91323      0.99848      0.99818  1.0000
  O2          0.97792      0.90997      0.32998  1.0000
  O2          0.05162      0.05835      0.66261  1.0000
  O2          0.04537      0.98611      0.49691  1.0000
  O2          0.98316      0.05531      0.82841  1.0000
  O2          0.90348      0.90928      0.16337  1.0000
  O2          0.31529      0.56009      0.32882  1.0000
  O2          0.40451      0.74990      0.66231  1.0000
  O2          0.22083      0.64709      0.99410  1.0000
  O2          0.64428      0.40555      0.83126  1.0000
  O2          0.55565      0.23005      0.17038  1.0000
  O2          0.73612      0.32720      0.49920  1.0000
  O3          0.56373      0.33255      0.99826  1.0000
  O2          0.74370      0.40879      0.66559  1.0000
  O2          0.63811      0.22112      0.33463  1.0000
  O2          0.39420      0.64392      0.49583  1.0000
  O2          0.22207      0.57629      0.16219  1.0000
  O2          0.32284      0.74548      0.82858  1.0000
  O2          0.11458      0.20131      0.96816  1.0000
  O2          0.76324      0.89382      0.30454  1.0000
  O2          0.06902      0.86158      0.63670  1.0000
  O2          0.84873      0.77280      0.46986  1.0000
  O2          0.19677      0.07251      0.80250  1.0000
  O3          0.89557      0.11093      0.13748  1.0000
  O2          0.18931      0.10719      0.35787  1.0000
  O2          0.90877      0.79480      0.02556  1.0000
  O2          0.85751      0.07647      0.69074  1.0000
  O2          0.77088      0.85879      0.85590  1.0000
  O2          0.06199      0.19768      0.52529  1.0000
  O2          0.10269      0.90174      0.19387  1.0000
  O2          0.90120      0.84174      0.24702  1.0000
  O2          0.11570      0.05248      0.57999  1.0000
  O2          0.92043      0.04813      0.91226  1.0000
  O2          0.05408      0.12376      0.74588  1.0000
  O2          0.83675      0.92200      0.08027  1.0000
  O2          0.04326      0.91563      0.41418  1.0000
  O2          0.89412      0.19812      0.96932  1.0000
  O2          0.77172      0.67905      0.31044  1.0000
  O2          0.28368      0.08535      0.64296  1.0000
  O2          0.07265      0.78155      0.47744  1.0000
  O2          0.18813      0.28706      0.80898  1.0000
  O2          0.67666      0.89639      0.14422  1.0000
  O2          0.18123      0.88391      0.35327  1.0000
  O2          0.68336      0.78780      0.01557  1.0000
  O2          0.08232      0.29008      0.68408  1.0000
  O2          0.78037      0.08209      0.85084  1.0000
  O2          0.27722      0.19059      0.51745  1.0000
  O2          0.88334      0.68391      0.18358  1.0000
  O2          0.29929      0.63174      0.24647  1.0000
  O2          0.33437      0.66350      0.57956  1.0000
  O2          0.30320      0.66338      0.91135  1.0000
  O2          0.66080      0.34090      0.74810  1.0000
  O3          0.60422      0.29888      0.08395  1.0000
  O2          0.65509      0.30953      0.41588  1.0000
  O2          0.36120      0.32169      0.96661  1.0000
  O2          0.64821      0.02681      0.30399  1.0000
  O2          0.93718      0.61357      0.63546  1.0000
  O2          0.59981      0.65500      0.46688  1.0000
  O2          0.31275      0.94072      0.80010  1.0000
  O3          0.03153      0.36921      0.13056  1.0000
  O2          0.30434      0.35526      0.35884  1.0000
  O2          0.02519      0.66019      0.02447  1.0000
  O2          0.60946      0.94449      0.69234  1.0000
  O2          0.65401      0.61222      0.85878  1.0000
  O2          0.93185      0.31588      0.52727  1.0000
  O2          0.35111      0.03167      0.19645  1.0000
  O3          0.74817      0.28223      0.00046  1.0000
  O2          0.67327      0.44972      0.34197  1.0000
  O2          0.51531      0.21670      0.67460  1.0000
  O2          0.20459      0.68139      0.50750  1.0000
  O2          0.28684      0.51832      0.83864  1.0000
  O2          0.44635      0.76453      0.17486  1.0000
  O2          0.27863      0.75176      0.32044  1.0000
  O2          0.45105      0.68700      0.98442  1.0000
  O2          0.21306      0.52088      0.65268  1.0000
  O2          0.68098      0.21445      0.82021  1.0000
  O2          0.50804      0.29041      0.48730  1.0000
  O2          0.74340      0.45741      0.15004  1.0000
  O3          0.76827      0.54349      0.02049  1.0000
  O2          0.44156      0.23288      0.35929  1.0000
  O2          0.73400      0.20361      0.69220  1.0000
  O2          0.19129      0.44989      0.52487  1.0000
  O2          0.51858      0.73665      0.85649  1.0000
  O2          0.22420      0.77279      0.19322  1.0000
  O2          0.51119      0.76822      0.30266  1.0000
  O2          0.23294      0.45325      0.96776  1.0000
  O2          0.19670      0.73676      0.63547  1.0000
  O2          0.44871      0.19944      0.80263  1.0000
  O2          0.72501      0.52163      0.47032  1.0000
  O3          0.75630      0.24104      0.13608  1.0000
  O2          0.21513      0.31177      0.89385  1.0000
  O2          0.65616      0.89800      0.22993  1.0000
  O2          0.06869      0.75398      0.56225  1.0000
  O2          0.74387      0.66015      0.39532  1.0000
  O2          0.30538      0.07688      0.72797  1.0000
  O3          0.88220      0.21493      0.05557  1.0000
  O2          0.29775      0.21657      0.43242  1.0000
  O2          0.88766      0.66210      0.09677  1.0000
  O2          0.75229      0.07807      0.76572  1.0000
  O2          0.66157      0.75616      0.93087  1.0000
  O2          0.07090      0.31029      0.59948  1.0000
  O2          0.20868      0.89426      0.26844  1.0000
  O2          0.57166      0.54976      0.98732  1.0000
  O2          0.41952      0.00932      0.32461  1.0000
  O2          0.95422      0.40151      0.65538  1.0000
  O2          0.38603      0.42670      0.48703  1.0000
  O2          0.54199      0.95613      0.82029  1.0000
  O2          0.99799      0.56361      0.14955  1.0000
  O2          0.53345      0.56921      0.33925  1.0000
  O2          0.00302      0.43118      0.00549  1.0000
  O2          0.39422      0.95797      0.67211  1.0000
  O2          0.42599      0.39770      0.83980  1.0000
  O2          0.94530      0.54417      0.50732  1.0000
  O2          0.56895      0.02276      0.17620  1.0000
  O2          0.56022      0.15108      0.25176  1.0000
  O2          0.81263      0.40392      0.58208  1.0000
  O2          0.57105      0.40926      0.91430  1.0000
  O2          0.39968      0.82043      0.74575  1.0000
  O2          0.14012      0.57109      0.07770  1.0000
  O2          0.38974      0.56499      0.41256  1.0000
  F           0.42772      0.88942      0.24817  1.0000
  F           0.07471      0.53417      0.58018  1.0000
  F           0.43307      0.53897      0.91198  1.0000
  F           0.53115      0.08206      0.74631  1.0000
  F           0.84541      0.42287      0.07109  1.0000
  F           0.52284      0.43611      0.41325  1.0000
