data_cif

_audit_creation_method             'generated by GULP'

_symmetry_space_group_name_H-M     'P 1'
_symmetry_Int_Tables_number        1
_symmetry_cell_setting             triclinic

_cell_length_a                       11.8964
_cell_length_b                       12.0403
_cell_length_c                       29.4774
_cell_angle_alpha                   90.2171
_cell_angle_beta                    89.9239
_cell_angle_gamma                  120.1840

loop_
_atom_site_label
_atom_site_fract_x
_atom_site_fract_y
_atom_site_fract_z
_atom_site_occupancy
  Ge          0.69960      0.37570      0.03389  1.0000
  Si          0.59356      0.30606      0.36365  1.0000
  Si          0.65079      0.28681      0.69678  1.0000
  Si          0.26486      0.60576      0.52696  1.0000
  Si          0.36495      0.65613      0.86114  1.0000
  Si          0.29866      0.69162      0.19518  1.0000
  Si          0.34846      0.68186      0.29557  1.0000
  Si          0.30719      0.60792      0.96099  1.0000
  Si          0.27110      0.66396      0.62744  1.0000
  Si          0.60338      0.28861      0.80000  1.0000
  Si          0.64478      0.36521      0.46410  1.0000
  Si          0.66805      0.30664      0.13190  1.0000
  Si          0.52311      0.41089      0.96671  1.0000
  Si          0.55725      0.09315      0.30099  1.0000
  Si          0.86161      0.45839      0.63118  1.0000
  Si          0.43414      0.56472      0.46109  1.0000
  Si          0.38814      0.86139      0.79692  1.0000
  Si          0.09097      0.52070      0.12794  1.0000
  Si          0.38476      0.50802      0.35948  1.0000
  Si          0.09275      0.57276      0.02492  1.0000
  Si          0.44321      0.87291      0.69296  1.0000
  Si          0.57825      0.46375      0.86459  1.0000
  Si          0.85494      0.40410      0.52968  1.0000
  Si          0.50722      0.09912      0.19963  1.0000
  Si          0.29307      0.38145      0.84636  1.0000
  Si          0.57974      0.89323      0.18204  1.0000
  Si          0.06324      0.68384      0.51397  1.0000
  Si          0.66845      0.58091      0.34654  1.0000
  Si          0.36866      0.08356      0.67749  1.0000
  Si          0.88044      0.28464      0.01004  1.0000
  Si          0.36351      0.28649      0.47671  1.0000
  Si          0.87499      0.59118      0.14170  1.0000
  Si          0.67464      0.07840      0.81246  1.0000
  Si          0.58686      0.69006      0.97758  1.0000
  Si          0.07165      0.38617      0.64374  1.0000
  Si          0.27378      0.88286      0.31271  1.0000
  Si          0.24174      0.33056      0.94725  1.0000
  Si          0.63223      0.89218      0.28288  1.0000
  Si          0.06100      0.73665      0.61478  1.0000
  Si          0.71551      0.64302      0.44709  1.0000
  Ge          0.33594      0.07239      0.77757  1.0000
  Si          0.88629      0.23941      0.11326  1.0000
  Si          0.30920      0.23197      0.37601  1.0000
  Si          0.89164      0.65789      0.03945  1.0000
  Si          0.72581      0.07534      0.71014  1.0000
  Si          0.64923      0.73932      0.87728  1.0000
  Si          0.05650      0.32536      0.54298  1.0000
  Si          0.22565      0.89733      0.21233  1.0000
  Si          0.96175      0.11264      0.96107  1.0000
  Si          0.84873      0.82758      0.29608  1.0000
  Si          0.12282      0.01550      0.62739  1.0000
  Si          0.99539      0.86269      0.46260  1.0000
  Si          0.11071      0.13396      0.79439  1.0000
  Si          0.82870      0.96373      0.12986  1.0000
  Si          0.09261      0.95105      0.36179  1.0000
  Si          0.83521      0.87623      0.02833  1.0000
  Si          0.01033      0.14200      0.69479  1.0000
  Si          0.86505      0.01769      0.86050  1.0000
  Si          0.11446      0.10594      0.52734  1.0000
  Si          0.94552      0.83778      0.19470  1.0000
  O2          0.91507      0.99633      0.99587  1.0000
  O2          0.97269      0.90719      0.32792  1.0000
  O2          0.04846      0.06197      0.66083  1.0000
  O2          0.03519      0.98569      0.49405  1.0000
  O2          0.98304      0.06422      0.82624  1.0000
  O2          0.90929      0.92258      0.16259  1.0000
  O2          0.30853      0.55614      0.32646  1.0000
  O2          0.39673      0.75036      0.65944  1.0000
  O2          0.21969      0.64578      0.99318  1.0000
  O2          0.65685      0.41442      0.83267  1.0000
  O2          0.55864      0.22829      0.17009  1.0000
  O2          0.72716      0.32719      0.49794  1.0000
  O3          0.56341      0.33400      0.99910  1.0000
  O2          0.73775      0.40962      0.66485  1.0000
  O2          0.63381      0.21815      0.33352  1.0000
  O2          0.38576      0.64273      0.49288  1.0000
  O2          0.21549      0.57133      0.16095  1.0000
  O2          0.32143      0.73225      0.82669  1.0000
  O2          0.11627      0.20231      0.96728  1.0000
  O2          0.75740      0.88977      0.30323  1.0000
  O2          0.05967      0.86202      0.63445  1.0000
  O2          0.84015      0.77100      0.46741  1.0000
  O3          0.19017      0.06420      0.79879  1.0000
  O2          0.88955      0.11735      0.13490  1.0000
  O2          0.18386      0.10445      0.35572  1.0000
  O2          0.90848      0.79470      0.02412  1.0000
  O2          0.85392      0.08000      0.68985  1.0000
  O2          0.77551      0.86373      0.85617  1.0000
  O2          0.05189      0.19750      0.52269  1.0000
  O2          0.10112      0.90096      0.19192  1.0000
  O2          0.89786      0.84238      0.24489  1.0000
  O2          0.09951      0.04934      0.57718  1.0000
  O2          0.92184      0.05757      0.91078  1.0000
  O2          0.05254      0.13097      0.74461  1.0000
  O2          0.84277      0.92708      0.07916  1.0000
  O2          0.03676      0.91362      0.41202  1.0000
  O2          0.89322      0.19544      0.97198  1.0000
  O2          0.76752      0.67626      0.30794  1.0000
  O2          0.27789      0.08307      0.63560  1.0000
  O2          0.06502      0.78183      0.47587  1.0000
  O2          0.20048      0.28559      0.80709  1.0000
  O2          0.67656      0.89338      0.14316  1.0000
  O2          0.17535      0.88100      0.35135  1.0000
  O2          0.68318      0.79017      0.01612  1.0000
  O2          0.07745      0.29244      0.68182  1.0000
  O2          0.77455      0.08008      0.84995  1.0000
  O2          0.26703      0.18956      0.51529  1.0000
  O2          0.87714      0.68863      0.18022  1.0000
  O2          0.29457      0.62904      0.24453  1.0000
  O2          0.32659      0.66349      0.57683  1.0000
  O2          0.30456      0.66163      0.91052  1.0000
  O2          0.65091      0.33781      0.74776  1.0000
  O3          0.60366      0.29865      0.08432  1.0000
  O2          0.64924      0.30854      0.41427  1.0000
  O2          0.36442      0.32466      0.96664  1.0000
  O2          0.64403      0.02347      0.30277  1.0000
  O2          0.93010      0.61382      0.63435  1.0000
  O2          0.59138      0.65274      0.46416  1.0000
  O3          0.29753      0.92246      0.80188  1.0000
  O2          0.01847      0.36562      0.13023  1.0000
  O2          0.29796      0.35207      0.35658  1.0000
  O2          0.02541      0.66089      0.02428  1.0000
  O2          0.60106      0.94583      0.69130  1.0000
  O2          0.66379      0.61909      0.86036  1.0000
  O2          0.92240      0.31588      0.52607  1.0000
  O2          0.35001      0.02967      0.19512  1.0000
  O3          0.74651      0.27794      0.00204  1.0000
  O2          0.66885      0.44722      0.34007  1.0000
  O2          0.50742      0.21759      0.67390  1.0000
  O2          0.19656      0.68149      0.50556  1.0000
  O2          0.29170      0.51393      0.83858  1.0000
  O2          0.44328      0.76160      0.17311  1.0000
  O2          0.27192      0.74813      0.31848  1.0000
  O2          0.45023      0.68782      0.98445  1.0000
  O2          0.20501      0.52226      0.65026  1.0000
  O2          0.67445      0.21157      0.81840  1.0000
  O2          0.49929      0.28971      0.48536  1.0000
  O2          0.74347      0.45610      0.15024  1.0000
  O3          0.76745      0.54304      0.01752  1.0000
  O2          0.43649      0.23095      0.35760  1.0000
  O2          0.71656      0.19769      0.69388  1.0000
  O2          0.18201      0.45011      0.52242  1.0000
  O2          0.52282      0.73767      0.85645  1.0000
  O2          0.22178      0.77095      0.19155  1.0000
  O2          0.50531      0.76479      0.30120  1.0000
  O2          0.23302      0.45256      0.96627  1.0000
  O2          0.18994      0.73886      0.63308  1.0000
  O3          0.44964      0.21398      0.80662  1.0000
  O2          0.71778      0.52070      0.46812  1.0000
  O2          0.76203      0.24333      0.13252  1.0000
  O2          0.22201      0.30994      0.89304  1.0000
  O2          0.65210      0.89376      0.22856  1.0000
  O2          0.05982      0.75365      0.56048  1.0000
  O2          0.73786      0.65759      0.39282  1.0000
  O3          0.28649      0.07790      0.72067  1.0000
  O2          0.88597      0.22367      0.05903  1.0000
  O2          0.28963      0.21465      0.43029  1.0000
  O2          0.87814      0.65975      0.09473  1.0000
  O2          0.73634      0.07268      0.76428  1.0000
  O2          0.66468      0.76125      0.93162  1.0000
  O2          0.06435      0.31113      0.59715  1.0000
  O2          0.20459      0.89181      0.26663  1.0000
  O2          0.57297      0.55325      0.98811  1.0000
  O2          0.41454      0.00592      0.32328  1.0000
  O2          0.94482      0.39892      0.65329  1.0000
  O2          0.37608      0.42487      0.48462  1.0000
  O2          0.53223      0.95562      0.81883  1.0000
  O2          0.99920      0.57263      0.14747  1.0000
  O2          0.52775      0.56532      0.33688  1.0000
  O2          0.00087      0.43109      0.00430  1.0000
  O2          0.39015      0.96124      0.67127  1.0000
  O2          0.43743      0.40370      0.84037  1.0000
  O2          0.93702      0.54406      0.50590  1.0000
  O2          0.56779      0.01977      0.17512  1.0000
  O2          0.55783      0.14810      0.25081  1.0000
  O2          0.80361      0.40486      0.58079  1.0000
  O2          0.57902      0.41564      0.91559  1.0000
  O2          0.39298      0.82151      0.74377  1.0000
  O2          0.13812      0.56792      0.07666  1.0000
  O2          0.38168      0.56180      0.40991  1.0000
  F           0.42463      0.88711      0.24700  1.0000
  F           0.06599      0.53469      0.57902  1.0000
  F           0.43929      0.54374      0.91256  1.0000
  F           0.48524      0.07749      0.75061  1.0000
  F           0.84523      0.43061      0.06995  1.0000
  F           0.51589      0.43408      0.41143  1.0000
