data_cif

_audit_creation_method             'generated by GULP'

_symmetry_space_group_name_H-M     'P 1'
_symmetry_Int_Tables_number        1
_symmetry_cell_setting             triclinic

_cell_length_a                       11.9278
_cell_length_b                       11.9278
_cell_length_c                       29.4859
_cell_angle_alpha                   89.5121
_cell_angle_beta                    90.4882
_cell_angle_gamma                  119.4378

loop_
_atom_site_label
_atom_site_fract_x
_atom_site_fract_y
_atom_site_fract_z
_atom_site_occupancy
  Si          0.69960      0.37570      0.03389  1.0000
  Si          0.62366      0.31502      0.36515  1.0000
  Si          0.67248      0.28218      0.69784  1.0000
  Si          0.29617      0.61139      0.53650  1.0000
  Si          0.38194      0.66502      0.86758  1.0000
  Si          0.33490      0.70093      0.19923  1.0000
  Si          0.38571      0.68962      0.30096  1.0000
  Si          0.32500      0.61371      0.96971  1.0000
  Si          0.29213      0.66254      0.63701  1.0000
  Si          0.62135      0.28622      0.79836  1.0000
  Si          0.67497      0.37197      0.46727  1.0000
  Si          0.71090      0.32491      0.13563  1.0000
  Ge          0.53065      0.42396      0.96564  1.0000
  Si          0.58775      0.10272      0.30185  1.0000
  Si          0.88228      0.45839      0.63445  1.0000
  Si          0.46631      0.58407      0.46830  1.0000
  Si          0.41986      0.87562      0.80158  1.0000
  Si          0.12307      0.53057      0.13419  1.0000
  Ge          0.43391      0.52065      0.36922  1.0000
  Si          0.11270      0.57779      0.03301  1.0000
  Si          0.46834      0.87234      0.70041  1.0000
  Si          0.59404      0.45637      0.86655  1.0000
  Si          0.88556      0.40990      0.53327  1.0000
  Si          0.54054      0.11309      0.20067  1.0000
  Si          0.30604      0.38361      0.85332  1.0000
  Si          0.61215      0.90347      0.18585  1.0000
  Si          0.09375      0.68891      0.52040  1.0000
  Si          0.70670      0.59892      0.34690  1.0000
  Si          0.39495      0.08096      0.68477  1.0000
  Si          0.90452      0.29955      0.01961  1.0000
  Si          0.39355      0.29607      0.48153  1.0000
  Si          0.91344      0.60216      0.14900  1.0000
  Si          0.69887      0.08380      0.81446  1.0000
  Si          0.60890      0.69674      0.98795  1.0000
  Si          0.09091      0.38500      0.65009  1.0000
  Si          0.30953      0.89452      0.31525  1.0000
  Si          0.25108      0.32578      0.95556  1.0000
  Si          0.66600      0.90205      0.28666  1.0000
  Si          0.08295      0.73629      0.62087  1.0000
  Si          0.74675      0.65793      0.44997  1.0000
  Si          0.34068      0.07681      0.78540  1.0000
  Si          0.92147      0.25354      0.12003  1.0000
  Si          0.33573      0.24108      0.37930  1.0000
  Si          0.91202      0.65601      0.04819  1.0000
  Si          0.74624      0.07300      0.71399  1.0000
  Si          0.66790      0.73680      0.88488  1.0000
  Si          0.08675      0.33072      0.54945  1.0000
  Si          0.26351      0.91148      0.21482  1.0000
  Si          0.96698      0.11741      0.96848  1.0000
  Si          0.88996      0.84422      0.29985  1.0000
  Si          0.14731      0.01679      0.63416  1.0000
  Si          0.02858      0.87019      0.46731  1.0000
  Si          0.12219      0.13809      0.80211  1.0000
  Si          0.86059      0.97431      0.13543  1.0000
  Si          0.12737      0.95698      0.36637  1.0000
  Si          0.85421      0.87999      0.03500  1.0000
  Si          0.02674      0.13737      0.70070  1.0000
  Si          0.88016      0.01863      0.86754  1.0000
  Si          0.14803      0.11223      0.53274  1.0000
  Si          0.98428      0.85060      0.19942  1.0000
  O2          0.93211      0.99737      0.00091  1.0000
  O2          0.00735      0.92210      0.33394  1.0000
  O2          0.07163      0.06169      0.66743  1.0000
  O2          0.06900      0.99315      0.49926  1.0000
  O2          0.00311      0.05906      0.83559  1.0000
  O2          0.94254      0.93256      0.16743  1.0000
  O3          0.34767      0.57008      0.33250  1.0000
  O2          0.41608      0.74465      0.66937  1.0000
  O2          0.23730      0.65253      0.99974  1.0000
  O2          0.66366      0.41312      0.82866  1.0000
  O2          0.59015      0.24065      0.16901  1.0000
  O2          0.76048      0.33520      0.50042  1.0000
  O3          0.58007      0.33769      0.00235  1.0000
  O2          0.75460      0.40613      0.66548  1.0000
  O2          0.66249      0.22731      0.33511  1.0000
  O2          0.42306      0.65369      0.50619  1.0000
  O2          0.25063      0.58018      0.16584  1.0000
  O2          0.34516      0.75053      0.83444  1.0000
  O2          0.11903      0.20804      0.97392  1.0000
  O2          0.79255      0.90008      0.30662  1.0000
  O2          0.08175      0.86260      0.64035  1.0000
  O2          0.87410      0.78012      0.47098  1.0000
  O2          0.21409      0.07456      0.80616  1.0000
  O2          0.92274      0.12778      0.14085  1.0000
  O2          0.21801      0.10903      0.36093  1.0000
  O2          0.91004      0.78256      0.02824  1.0000
  O2          0.87255      0.07180      0.69451  1.0000
  O2          0.79008      0.86416      0.86387  1.0000
  O2          0.08451      0.20414      0.52870  1.0000
  O2          0.13775      0.91275      0.19400  1.0000
  O2          0.94548      0.86501      0.24982  1.0000
  O2          0.13546      0.05682      0.58317  1.0000
  O2          0.92923      0.06376      0.91785  1.0000
  O2          0.06679      0.12552      0.75168  1.0000
  O2          0.87500      0.93551      0.08503  1.0000
  O2          0.07371      0.91924      0.41701  1.0000
  O2          0.89684      0.19895      0.98076  1.0000
  O2          0.81832      0.69191      0.31151  1.0000
  O2          0.29863      0.08276      0.64592  1.0000
  O2          0.09736      0.78841      0.48207  1.0000
  O2          0.20732      0.28899      0.81471  1.0000
  O2          0.70957      0.90364      0.14759  1.0000
  O2          0.20892      0.88683      0.35409  1.0000
  O2          0.70190      0.80837      0.02334  1.0000
  O2          0.09270      0.28869      0.68893  1.0000
  O2          0.79837      0.08742      0.85278  1.0000
  O2          0.29893      0.19736      0.52014  1.0000
  O2          0.91361      0.69958      0.18726  1.0000
  O2          0.33579      0.64268      0.24900  1.0000
  O2          0.34977      0.66540      0.58705  1.0000
  O2          0.32699      0.66230      0.91769  1.0000
  O2          0.67535      0.33982      0.74780  1.0000
  O2          0.65265      0.32577      0.08585  1.0000
  O2          0.67224      0.31701      0.41717  1.0000
  O3          0.36438      0.30725      0.97476  1.0000
  O2          0.67751      0.03543      0.30544  1.0000
  O2          0.94962      0.61426      0.63824  1.0000
  O2          0.62460      0.66722      0.46880  1.0000
  O2          0.33273      0.94535      0.80475  1.0000
  O2          0.05463      0.37447      0.13809  1.0000
  O3          0.31719      0.35438      0.36009  1.0000
  O2          0.04540      0.66753      0.02941  1.0000
  O2          0.62421      0.93967      0.69662  1.0000
  O2          0.67719      0.61466      0.86605  1.0000
  O2          0.95530      0.32277      0.53011  1.0000
  O2          0.38444      0.04465      0.19676  1.0000
  O2          0.77107      0.30023      0.01344  1.0000
  O2          0.70165      0.45987      0.34501  1.0000
  O2          0.52822      0.21365      0.67636  1.0000
  O2          0.22633      0.68558      0.51352  1.0000
  O2          0.31076      0.52092      0.84703  1.0000
  O2          0.47813      0.77177      0.17714  1.0000
  O2          0.31023      0.76108      0.32141  1.0000
  O2          0.46985      0.69169      0.98985  1.0000
  O2          0.22360      0.51828      0.65849  1.0000
  O2          0.69554      0.21639      0.82133  1.0000
  O2          0.53087      0.30080      0.48782  1.0000
  O2          0.78174      0.46814      0.15771  1.0000
  O2          0.78758      0.53194      0.02849  1.0000
  O2          0.46955      0.25169      0.36163  1.0000
  O2          0.74527      0.19807      0.69314  1.0000
  O2          0.21479      0.45556      0.53126  1.0000
  O2          0.53630      0.72874      0.86660  1.0000
  O2          0.26224      0.78529      0.19518  1.0000
  O2          0.54195      0.77761      0.30636  1.0000
  O2          0.26167      0.45960      0.97322  1.0000
  O2          0.20801      0.73533      0.64171  1.0000
  O2          0.46552      0.20485      0.80359  1.0000
  O2          0.73868      0.52633      0.46825  1.0000
  O2          0.79527      0.25225      0.13967  1.0000
  O2          0.23939      0.31552      0.90035  1.0000
  O2          0.68467      0.90265      0.23239  1.0000
  O2          0.08800      0.75789      0.56666  1.0000
  O2          0.76234      0.67061      0.39588  1.0000
  O2          0.32089      0.07711      0.73108  1.0000
  O2          0.91668      0.23157      0.06581  1.0000
  O2          0.32547      0.22940      0.43451  1.0000
  O2          0.91261      0.67468      0.10246  1.0000
  O2          0.76784      0.07806      0.76820  1.0000
  O2          0.68058      0.75240      0.93897  1.0000
  O2          0.08705      0.31094      0.60377  1.0000
  O2          0.24154      0.90668      0.26905  1.0000
  O3          0.60120      0.56537      0.00106  1.0000
  O2          0.44737      0.02066      0.32553  1.0000
  O2          0.96517      0.39945      0.65839  1.0000
  O2          0.41266      0.43771      0.48832  1.0000
  O2          0.56167      0.95715      0.82421  1.0000
  O2          0.04096      0.59010      0.15744  1.0000
  O3          0.57532      0.59119      0.33379  1.0000
  O2          0.03065      0.43740      0.00933  1.0000
  O2          0.40939      0.95522      0.67647  1.0000
  O2          0.44768      0.40272      0.84654  1.0000
  O2          0.96710      0.55172      0.51064  1.0000
  O2          0.60007      0.03099      0.17741  1.0000
  O2          0.59127      0.16393      0.25196  1.0000
  O2          0.82969      0.40711      0.58353  1.0000
  O3          0.60193      0.40127      0.91464  1.0000
  O2          0.41706      0.81975      0.75133  1.0000
  O2          0.17392      0.58130      0.08289  1.0000
  O3          0.41121      0.59194      0.42021  1.0000
  F           0.46543      0.90869      0.25071  1.0000
  F           0.08870      0.53520      0.58515  1.0000
  F           0.47602      0.51522      0.92789  1.0000
  F           0.54515      0.07875      0.74970  1.0000
  F           0.91867      0.45544      0.08415  1.0000
  F           0.52516      0.46603      0.40696  1.0000
