data_cif

_audit_creation_method             'generated by GULP'

_symmetry_space_group_name_H-M     'P 1'
_symmetry_Int_Tables_number        1
_symmetry_cell_setting             triclinic

_cell_length_a                       11.9410
_cell_length_b                       11.9609
_cell_length_c                       29.3938
_cell_angle_alpha                   89.7812
_cell_angle_beta                    89.6408
_cell_angle_gamma                  119.7381

loop_
_atom_site_label
_atom_site_fract_x
_atom_site_fract_y
_atom_site_fract_z
_atom_site_occupancy
  Si          0.69960      0.37570      0.03389  1.0000
  Si          0.64682      0.32552      0.36785  1.0000
  Si          0.68905      0.28739      0.69770  1.0000
  Si          0.31167      0.61440      0.53217  1.0000
  Si          0.39067      0.66660      0.86617  1.0000
  Si          0.32713      0.69924      0.20013  1.0000
  Si          0.38356      0.68635      0.30232  1.0000
  Si          0.32866      0.61575      0.96867  1.0000
  Si          0.31121      0.66756      0.63300  1.0000
  Si          0.63177      0.28632      0.79855  1.0000
  Si          0.69396      0.37659      0.46844  1.0000
  Si          0.70930      0.32558      0.13582  1.0000
  Ge          0.53353      0.42526      0.96591  1.0000
  Si          0.59777      0.11408      0.30543  1.0000
  Si          0.90288      0.46386      0.63439  1.0000
  Si          0.48349      0.57461      0.46670  1.0000
  Si          0.43003      0.87648      0.79935  1.0000
  Si          0.11893      0.53181      0.13389  1.0000
  Si          0.43511      0.51872      0.36524  1.0000
  Si          0.11405      0.57964      0.03229  1.0000
  Si          0.48340      0.87606      0.69762  1.0000
  Si          0.60269      0.45718      0.86663  1.0000
  Si          0.90304      0.41253      0.53277  1.0000
  Si          0.53653      0.11652      0.20259  1.0000
  Si          0.31540      0.38501      0.85295  1.0000
  Si          0.60875      0.90355      0.18591  1.0000
  Si          0.11089      0.69360      0.51774  1.0000
  Si          0.71947      0.60096      0.35231  1.0000
  Si          0.41152      0.08598      0.68355  1.0000
  Si          0.90501      0.30024      0.01913  1.0000
  Si          0.41370      0.29436      0.48180  1.0000
  Si          0.91005      0.60341      0.14902  1.0000
  Si          0.70824      0.08431      0.81345  1.0000
  Si          0.61115      0.69745      0.98775  1.0000
  Si          0.11055      0.39053      0.64866  1.0000
  Ge          0.32485      0.89801      0.31079  1.0000
  Si          0.25462      0.32799      0.95547  1.0000
  Si          0.66927      0.90471      0.28754  1.0000
  Si          0.10313      0.74160      0.61899  1.0000
  Si          0.76455      0.65673      0.45323  1.0000
  Si          0.35158      0.07740      0.78458  1.0000
  Si          0.91893      0.25446      0.11986  1.0000
  Si          0.36037      0.24066      0.38076  1.0000
  Si          0.91242      0.65712      0.04773  1.0000
  Si          0.76138      0.07768      0.71272  1.0000
  Si          0.67564      0.73744      0.88445  1.0000
  Si          0.10354      0.33336      0.54782  1.0000
  Si          0.25304      0.91310      0.21518  1.0000
  Si          0.96943      0.11889      0.96810  1.0000
  Si          0.89503      0.85045      0.30182  1.0000
  Si          0.16439      0.02072      0.63395  1.0000
  Si          0.04327      0.87463      0.46680  1.0000
  Si          0.13331      0.13965      0.80147  1.0000
  Si          0.85795      0.97571      0.13502  1.0000
  Si          0.13886      0.96176      0.36496  1.0000
  Si          0.85525      0.88053      0.03466  1.0000
  Si          0.04296      0.14260      0.69990  1.0000
  Si          0.88794      0.01976      0.86687  1.0000
  Si          0.16451      0.11476      0.53273  1.0000
  Si          0.97816      0.85081      0.19915  1.0000
  O2          0.93395      0.99913      0.00086  1.0000
  O2          0.01502      0.93287      0.33408  1.0000
  O2          0.08817      0.06314      0.66851  1.0000
  O2          0.08476      0.99403      0.50045  1.0000
  O2          0.01343      0.06087      0.83557  1.0000
  O2          0.93286      0.93199      0.16881  1.0000
  O2          0.35560      0.55927      0.33081  1.0000
  O2          0.43493      0.75139      0.66535  1.0000
  O2          0.23977      0.65443      0.99883  1.0000
  O2          0.67347      0.41270      0.82934  1.0000
  O2          0.58796      0.24178      0.16995  1.0000
  O2          0.77728      0.33644      0.50119  1.0000
  O3          0.58046      0.33812      0.00291  1.0000
  O2          0.77475      0.41282      0.66617  1.0000
  O2          0.68791      0.24252      0.33491  1.0000
  O2          0.43353      0.65166      0.49871  1.0000
  O2          0.24515      0.58079      0.16603  1.0000
  O2          0.35486      0.75017      0.83228  1.0000
  O2          0.12115      0.21064      0.97407  1.0000
  O2          0.79572      0.90537      0.30693  1.0000
  O2          0.10147      0.86676      0.63942  1.0000
  O2          0.88897      0.78319      0.47339  1.0000
  O2          0.22355      0.07476      0.80505  1.0000
  O2          0.92054      0.12900      0.14042  1.0000
  O2          0.23835      0.11625      0.35959  1.0000
  O2          0.91128      0.78351      0.02770  1.0000
  O2          0.88907      0.07846      0.69315  1.0000
  O2          0.79926      0.86498      0.86355  1.0000
  O2          0.10247      0.20718      0.52746  1.0000
  O2          0.13104      0.91159      0.18993  1.0000
  O2          0.94499      0.86582      0.25049  1.0000
  O2          0.14919      0.06193      0.58378  1.0000
  O2          0.93373      0.06528      0.91751  1.0000
  O2          0.07824      0.13040      0.75149  1.0000
  O2          0.87536      0.93514      0.08509  1.0000
  O2          0.08287      0.92939      0.41647  1.0000
  O2          0.89827      0.19960      0.98042  1.0000
  O2          0.81735      0.69856      0.31381  1.0000
  O2          0.31642      0.08858      0.64495  1.0000
  O2          0.11255      0.79156      0.47921  1.0000
  O2          0.21916      0.29024      0.81430  1.0000
  O2          0.70488      0.90712      0.14629  1.0000
  O3          0.20979      0.88615      0.35296  1.0000
  O2          0.70299      0.80864      0.02349  1.0000
  O2          0.11227      0.29385      0.68747  1.0000
  O2          0.80594      0.08686      0.85193  1.0000
  O2          0.31634      0.19622      0.52058  1.0000
  O2          0.90614      0.69953      0.18708  1.0000
  O2          0.32938      0.64266      0.25022  1.0000
  O2          0.36927      0.66930      0.58253  1.0000
  O2          0.33375      0.66473      0.91652  1.0000
  O2          0.68897      0.34236      0.74817  1.0000
  O2          0.65136      0.32569      0.08620  1.0000
  O2          0.70009      0.32191      0.41837  1.0000
  O3          0.36634      0.30949      0.97551  1.0000
  O2          0.67822      0.03668      0.30486  1.0000
  O2          0.97093      0.61962      0.63811  1.0000
  O2          0.63919      0.66347      0.47096  1.0000
  O2          0.34221      0.94511      0.80351  1.0000
  O2          0.05087      0.37587      0.13836  1.0000
  O2          0.34948      0.36353      0.36322  1.0000
  O2          0.04665      0.66868      0.02918  1.0000
  O2          0.63993      0.94465      0.69505  1.0000
  O2          0.68616      0.61560      0.86613  1.0000
  O2          0.97134      0.32432      0.52996  1.0000
  O2          0.38083      0.04690      0.19936  1.0000
  O2          0.77156      0.30045      0.01352  1.0000
  O2          0.72325      0.46880      0.34541  1.0000
  O2          0.54554      0.21958      0.67609  1.0000
  O2          0.24437      0.69149      0.51056  1.0000
  O2          0.32008      0.52174      0.84643  1.0000
  O2          0.47340      0.77244      0.17978  1.0000
  O3          0.30764      0.74639      0.32698  1.0000
  O2          0.47246      0.69306      0.98944  1.0000
  O2          0.24386      0.52463      0.65608  1.0000
  O2          0.70456      0.21616      0.82160  1.0000
  O2          0.54989      0.29949      0.49067  1.0000
  O2          0.77900      0.46811      0.15816  1.0000
  O2          0.78909      0.53196      0.02827  1.0000
  O2          0.49145      0.24960      0.36176  1.0000
  O2          0.76071      0.20282      0.69259  1.0000
  O2          0.22928      0.45880      0.52798  1.0000
  O2          0.54516      0.72944      0.86586  1.0000
  O2          0.26115      0.78853      0.19736  1.0000
  O2          0.54040      0.77931      0.30505  1.0000
  O2          0.26380      0.46163      0.97257  1.0000
  O2          0.23015      0.74311      0.63837  1.0000
  O2          0.47526      0.20503      0.80380  1.0000
  O2          0.76719      0.53230      0.47347  1.0000
  O2          0.79065      0.25010      0.13987  1.0000
  O2          0.24617      0.31683      0.90020  1.0000
  O2          0.67831      0.90420      0.23269  1.0000
  O2          0.10530      0.76177      0.56460  1.0000
  O2          0.78609      0.67578      0.39881  1.0000
  O2          0.33516      0.07971      0.73017  1.0000
  O2          0.91614      0.23280      0.06555  1.0000
  O2          0.34335      0.22207      0.43545  1.0000
  O2          0.91053      0.67501      0.10215  1.0000
  O2          0.78038      0.08117      0.76716  1.0000
  O2          0.68574      0.75326      0.93880  1.0000
  O2          0.10601      0.31568      0.60236  1.0000
  O3          0.22352      0.90798      0.26785  1.0000
  O3          0.60265      0.56645      0.00149  1.0000
  O3          0.46263      0.03734      0.33126  1.0000
  O2          0.98471      0.40444      0.65817  1.0000
  O2          0.42391      0.43260      0.48971  1.0000
  O2          0.57067      0.95613      0.82274  1.0000
  O2          0.03841      0.59322      0.15744  1.0000
  O2          0.57820      0.58192      0.34262  1.0000
  O2          0.03117      0.43906      0.00902  1.0000
  O2          0.42751      0.96173      0.67477  1.0000
  O2          0.45736      0.40430      0.84656  1.0000
  O2          0.98729      0.55363      0.50950  1.0000
  O2          0.58783      0.02538      0.18138  1.0000
  O2          0.58763      0.16148      0.25380  1.0000
  O2          0.84978      0.41230      0.58377  1.0000
  O3          0.60746      0.40274      0.91530  1.0000
  O2          0.42873      0.82205      0.74872  1.0000
  O2          0.17282      0.58275      0.08251  1.0000
  O2          0.43266      0.57489      0.41547  1.0000
  F           0.43244      0.90209      0.26216  1.0000
  F           0.11011      0.54104      0.58468  1.0000
  F           0.48112      0.51664      0.92797  1.0000
  F           0.55802      0.08171      0.74998  1.0000
  F           0.91693      0.45478      0.08531  1.0000
  F           0.56899      0.44902      0.41756  1.0000
