data_cif

_audit_creation_method             'generated by GULP'

_symmetry_space_group_name_H-M     'P 1'
_symmetry_Int_Tables_number        1
_symmetry_cell_setting             triclinic

_cell_length_a                       11.9429
_cell_length_b                       11.9399
_cell_length_c                       29.3889
_cell_angle_alpha                   89.2414
_cell_angle_beta                    90.7079
_cell_angle_gamma                  119.5650

loop_
_atom_site_label
_atom_site_fract_x
_atom_site_fract_y
_atom_site_fract_z
_atom_site_occupancy
  Si          0.69960      0.37570      0.03389  1.0000
  Si          0.63189      0.31440      0.36796  1.0000
  Si          0.68996      0.29716      0.69528  1.0000
  Si          0.30977      0.60620      0.53223  1.0000
  Si          0.38363      0.66534      0.86633  1.0000
  Si          0.33457      0.70157      0.19917  1.0000
  Si          0.38960      0.69592      0.30017  1.0000
  Si          0.32523      0.61538      0.96877  1.0000
  Si          0.31349      0.65638      0.63303  1.0000
  Si          0.62334      0.28906      0.79724  1.0000
  Si          0.68595      0.36864      0.46863  1.0000
  Si          0.71204      0.32463      0.13589  1.0000
  Ge          0.52964      0.42425      0.96608  1.0000
  Si          0.59278      0.10567      0.30296  1.0000
  Si          0.91073      0.46629      0.63463  1.0000
  Si          0.48126      0.57089      0.46708  1.0000
  Si          0.41921      0.87242      0.79764  1.0000
  Si          0.12316      0.53059      0.13395  1.0000
  Si          0.42802      0.52098      0.36527  1.0000
  Si          0.11318      0.57882      0.03235  1.0000
  Si          0.47807      0.86833      0.69484  1.0000
  Si          0.59424      0.45527      0.86679  1.0000
  Si          0.89961      0.40878      0.53335  1.0000
  Si          0.54075      0.11293      0.20101  1.0000
  Si          0.30676      0.38310      0.85314  1.0000
  Si          0.61186      0.90344      0.18586  1.0000
  Si          0.11038      0.68852      0.51908  1.0000
  Si          0.70894      0.59252      0.35226  1.0000
  Ge          0.42099      0.08603      0.68899  1.0000
  Si          0.90421      0.30043      0.01964  1.0000
  Si          0.40727      0.28938      0.48309  1.0000
  Si          0.91427      0.60216      0.14908  1.0000
  Si          0.70231      0.08457      0.81316  1.0000
  Si          0.60843      0.69688      0.98843  1.0000
  Si          0.11110      0.38223      0.64870  1.0000
  Si          0.31292      0.89724      0.31635  1.0000
  Si          0.25047      0.32681      0.95573  1.0000
  Si          0.66992      0.90419      0.28670  1.0000
  Si          0.11283      0.74318      0.62007  1.0000
  Si          0.76031      0.65048      0.45312  1.0000
  Si          0.33629      0.07551      0.78460  1.0000
  Si          0.92186      0.25299      0.12033  1.0000
  Si          0.35066      0.24207      0.38175  1.0000
  Si          0.91229      0.65613      0.04783  1.0000
  Si          0.75800      0.07809      0.71162  1.0000
  Si          0.66835      0.73571      0.88509  1.0000
  Si          0.09957      0.32701      0.54778  1.0000
  Si          0.26327      0.91105      0.21538  1.0000
  Si          0.96610      0.11817      0.96927  1.0000
  Si          0.88879      0.84137      0.30221  1.0000
  Si          0.17003      0.02247      0.63633  1.0000
  Si          0.03968      0.86866      0.46833  1.0000
  Si          0.12304      0.13664      0.80342  1.0000
  Si          0.86052      0.97333      0.13642  1.0000
  Si          0.13295      0.96344      0.36728  1.0000
  Si          0.85413      0.87960      0.03580  1.0000
  Si          0.03793      0.13351      0.70026  1.0000
  Si          0.87985      0.01747      0.86828  1.0000
  Si          0.16024      0.10872      0.53427  1.0000
  Si          0.98298      0.84827      0.20107  1.0000
  O2          0.93230      0.99961      0.00257  1.0000
  O2          0.00964      0.92127      0.33516  1.0000
  O2          0.07866      0.05104      0.66931  1.0000
  O2          0.08050      0.98755      0.50170  1.0000
  O2          0.00336      0.05993      0.83700  1.0000
  O2          0.93964      0.93156      0.17013  1.0000
  O2          0.35126      0.57066      0.33229  1.0000
  O2          0.43792      0.73835      0.66610  1.0000
  O2          0.23725      0.65375      0.99874  1.0000
  O2          0.66456      0.41288      0.82902  1.0000
  O2          0.59085      0.24063      0.16925  1.0000
  O2          0.77241      0.33144      0.50186  1.0000
  O3          0.57913      0.33752      0.00269  1.0000
  O2          0.78888      0.42501      0.66789  1.0000
  O2          0.67006      0.22912      0.33581  1.0000
  O2          0.43126      0.64654      0.49914  1.0000
  O2          0.25086      0.58075      0.16580  1.0000
  O2          0.34796      0.74861      0.83143  1.0000
  O2          0.11816      0.20944      0.97425  1.0000
  O2          0.79641      0.90352      0.30706  1.0000
  O2          0.11555      0.86796      0.64147  1.0000
  O2          0.88572      0.77697      0.47302  1.0000
  O2          0.21610      0.07530      0.81059  1.0000
  O2          0.92378      0.12722      0.14103  1.0000
  O2          0.22432      0.11722      0.36141  1.0000
  O2          0.90963      0.78257      0.02791  1.0000
  O2          0.88427      0.07703      0.69327  1.0000
  O2          0.79093      0.86318      0.86421  1.0000
  O2          0.09741      0.20073      0.52723  1.0000
  O2          0.13676      0.91246      0.19530  1.0000
  O2          0.94368      0.85587      0.25207  1.0000
  O2          0.14483      0.05668      0.58524  1.0000
  O2          0.92592      0.06216      0.91893  1.0000
  O2          0.06747      0.12009      0.75288  1.0000
  O2          0.87606      0.93181      0.08649  1.0000
  O2          0.08113      0.92479      0.41804  1.0000
  O2          0.89606      0.19980      0.98083  1.0000
  O2          0.80753      0.68954      0.31404  1.0000
  O3          0.31683      0.09735      0.64727  1.0000
  O2          0.10985      0.78602      0.48023  1.0000
  O2          0.20720      0.28885      0.81472  1.0000
  O2          0.70877      0.90448      0.14730  1.0000
  O2          0.21473      0.89340      0.35499  1.0000
  O2          0.70176      0.80851      0.02391  1.0000
  O2          0.11153      0.28492      0.68781  1.0000
  O2          0.79651      0.08454      0.85279  1.0000
  O2          0.31152      0.19079      0.52156  1.0000
  O2          0.91388      0.69853      0.18742  1.0000
  O2          0.33382      0.64161      0.24945  1.0000
  O2          0.36973      0.65936      0.58264  1.0000
  O2          0.32785      0.66404      0.91636  1.0000
  O2          0.68003      0.34192      0.74709  1.0000
  O2          0.65332      0.32535      0.08600  1.0000
  O2          0.68814      0.31221      0.41861  1.0000
  O3          0.36329      0.30840      0.97561  1.0000
  O2          0.68002      0.03580      0.30561  1.0000
  O2          0.97988      0.62139      0.63784  1.0000
  O2          0.63690      0.65941      0.47083  1.0000
  O2          0.33401      0.94307      0.80137  1.0000
  O2          0.05521      0.37453      0.13816  1.0000
  O2          0.34078      0.36506      0.36278  1.0000
  O2          0.04552      0.66809      0.02889  1.0000
  O2          0.63532      0.94462      0.69556  1.0000
  O2          0.67692      0.61374      0.86617  1.0000
  O2          0.96763      0.32022      0.52989  1.0000
  O2          0.38463      0.04440      0.19746  1.0000
  O2          0.77070      0.30061      0.01325  1.0000
  O2          0.70784      0.45766      0.34528  1.0000
  O3          0.55342      0.23607      0.67133  1.0000
  O2          0.24137      0.68353      0.51069  1.0000
  O2          0.31307      0.52091      0.84649  1.0000
  O2          0.47803      0.77100      0.17729  1.0000
  O2          0.31402      0.76290      0.32294  1.0000
  O2          0.46999      0.69318      0.98925  1.0000
  O2          0.24675      0.51351      0.65595  1.0000
  O2          0.69452      0.21428      0.81868  1.0000
  O2          0.54316      0.29185      0.49087  1.0000
  O2          0.78294      0.46769      0.15791  1.0000
  O2          0.78767      0.53203      0.02811  1.0000
  O2          0.47609      0.24101      0.36260  1.0000
  O2          0.75207      0.20171      0.69278  1.0000
  O2          0.22594      0.45077      0.52784  1.0000
  O2          0.53810      0.73031      0.86646  1.0000
  O2          0.26152      0.78543      0.19501  1.0000
  O2          0.54528      0.77686      0.30565  1.0000
  O2          0.26144      0.46128      0.97255  1.0000
  O2          0.23555      0.73449      0.63918  1.0000
  O2          0.46843      0.20231      0.80126  1.0000
  O2          0.76078      0.52452      0.47336  1.0000
  O2          0.79601      0.25165      0.14017  1.0000
  O2          0.23972      0.31568      0.90043  1.0000
  O2          0.68708      0.90465      0.23223  1.0000
  O2          0.11256      0.76127      0.56543  1.0000
  O2          0.77890      0.66719      0.39865  1.0000
  O3          0.31014      0.07772      0.73206  1.0000
  O2          0.91647      0.23170      0.06592  1.0000
  O2          0.33389      0.22154      0.43620  1.0000
  O2          0.91322      0.67442      0.10225  1.0000
  O2          0.76950      0.08245      0.76647  1.0000
  O2          0.68114      0.75115      0.93936  1.0000
  O2          0.10277      0.30706      0.60230  1.0000
  O2          0.24358      0.90594      0.26982  1.0000
  O3          0.59877      0.56491      0.00198  1.0000
  O2          0.45204      0.02108      0.32590  1.0000
  O2          0.98867      0.40116      0.65838  1.0000
  O2          0.42280      0.42980      0.49092  1.0000
  O2          0.56199      0.96047      0.81848  1.0000
  O2          0.04179      0.59019      0.15733  1.0000
  O2          0.56923      0.57817      0.34260  1.0000
  O2          0.03043      0.43819      0.00897  1.0000
  O3          0.41961      0.94576      0.66905  1.0000
  O2          0.44795      0.40106      0.84655  1.0000
  O2          0.98343      0.55083      0.51086  1.0000
  O2          0.59818      0.02988      0.17750  1.0000
  O2          0.59255      0.16216      0.25230  1.0000
  O2          0.85092      0.41040      0.58465  1.0000
  O3          0.60157      0.40087      0.91526  1.0000
  O2          0.42219      0.82372      0.74691  1.0000
  O2          0.17416      0.58185      0.08249  1.0000
  O2          0.42806      0.57317      0.41609  1.0000
  F           0.46327      0.90092      0.25090  1.0000
  F           0.11127      0.53423      0.58464  1.0000
  F           0.47636      0.51540      0.92778  1.0000
  F           0.52469      0.08333      0.73772  1.0000
  F           0.91866      0.45491      0.08401  1.0000
  F           0.55952      0.44254      0.41751  1.0000
