data_cif

_audit_creation_method             'generated by GULP'

_symmetry_space_group_name_H-M     'P 1'
_symmetry_Int_Tables_number        1
_symmetry_cell_setting             triclinic

_cell_length_a                       11.9822
_cell_length_b                       11.9284
_cell_length_c                       29.4984
_cell_angle_alpha                   89.9325
_cell_angle_beta                    90.2577
_cell_angle_gamma                  119.9933

loop_
_atom_site_label
_atom_site_fract_x
_atom_site_fract_y
_atom_site_fract_z
_atom_site_occupancy
  Si          0.69960      0.37570      0.03389  1.0000
  Si          0.63085      0.32143      0.36778  1.0000
  Si          0.67596      0.27971      0.69946  1.0000
  Si          0.28887      0.60558      0.53435  1.0000
  Si          0.38439      0.66358      0.86768  1.0000
  Si          0.33444      0.70504      0.19926  1.0000
  Si          0.38879      0.70276      0.29986  1.0000
  Si          0.32654      0.61539      0.96974  1.0000
  Si          0.29417      0.66049      0.63468  1.0000
  Si          0.62328      0.28204      0.79981  1.0000
  Si          0.68169      0.36854      0.47067  1.0000
  Si          0.71245      0.32783      0.13544  1.0000
  Ge          0.52999      0.42282      0.96657  1.0000
  Si          0.59071      0.11061      0.30221  1.0000
  Si          0.88642      0.45262      0.63580  1.0000
  Si          0.47058      0.58281      0.46958  1.0000
  Si          0.42128      0.87177      0.80091  1.0000
  Si          0.12266      0.53480      0.13397  1.0000
  Si          0.42458      0.53018      0.36573  1.0000
  Si          0.11423      0.58104      0.03282  1.0000
  Si          0.47028      0.86925      0.69963  1.0000
  Si          0.59497      0.45313      0.86769  1.0000
  Si          0.88330      0.39557      0.53489  1.0000
  Si          0.54217      0.11754      0.20078  1.0000
  Si          0.30802      0.38054      0.85412  1.0000
  Si          0.61322      0.90717      0.18582  1.0000
  Si          0.08567      0.67953      0.51877  1.0000
  Si          0.71007      0.60344      0.34992  1.0000
  Si          0.39745      0.07842      0.68558  1.0000
  Si          0.90386      0.30006      0.01958  1.0000
  Si          0.40038      0.29689      0.48434  1.0000
  Si          0.91512      0.60677      0.14896  1.0000
  Si          0.70068      0.08063      0.81483  1.0000
  Si          0.60894      0.69673      0.98877  1.0000
  Si          0.09538      0.38198      0.65032  1.0000
  Si          0.31031      0.90291      0.31576  1.0000
  Si          0.25143      0.32597      0.95627  1.0000
  Si          0.66991      0.91084      0.28649  1.0000
  Si          0.08467      0.73195      0.61975  1.0000
  Ge          0.73496      0.63685      0.45000  1.0000
  Si          0.34183      0.07216      0.78625  1.0000
  Si          0.92073      0.25583      0.11998  1.0000
  Si          0.34418      0.24774      0.38209  1.0000
  Si          0.91381      0.65847      0.04815  1.0000
  Si          0.74948      0.07064      0.71439  1.0000
  Si          0.66915      0.73476      0.88586  1.0000
  Si          0.08663      0.32213      0.55003  1.0000
  Si          0.26321      0.91537      0.21510  1.0000
  Si          0.96665      0.11771      0.96880  1.0000
  Si          0.88789      0.84889      0.30041  1.0000
  Si          0.15027      0.01350      0.63491  1.0000
  Si          0.02130      0.86294      0.46726  1.0000
  Si          0.12410      0.13374      0.80236  1.0000
  Si          0.86171      0.97705      0.13596  1.0000
  Si          0.12741      0.96428      0.36771  1.0000
  Si          0.85512      0.88091      0.03565  1.0000
  Si          0.02998      0.13467      0.70111  1.0000
  Si          0.88189      0.01710      0.86775  1.0000
  Si          0.15201      0.10740      0.53364  1.0000
  Si          0.98483      0.85548      0.20024  1.0000
  O2          0.93144      0.99855      0.00160  1.0000
  O2          0.00625      0.92346      0.33494  1.0000
  O2          0.07322      0.05643      0.66837  1.0000
  O2          0.07752      0.98725      0.50064  1.0000
  O2          0.00465      0.05600      0.83600  1.0000
  O2          0.94267      0.93745      0.16889  1.0000
  O2          0.34923      0.57835      0.33248  1.0000
  O2          0.41889      0.74389      0.66707  1.0000
  O2          0.23912      0.65503      0.99964  1.0000
  O2          0.66553      0.40953      0.83048  1.0000
  O2          0.59148      0.24422      0.16908  1.0000
  O2          0.75673      0.31597      0.50285  1.0000
  O3          0.57928      0.33670      0.00304  1.0000
  O2          0.76030      0.40395      0.66755  1.0000
  O2          0.66657      0.23491      0.33558  1.0000
  O2          0.40873      0.64933      0.50033  1.0000
  O2          0.24985      0.58372      0.16587  1.0000
  O2          0.34727      0.74608      0.83382  1.0000
  O2          0.11852      0.20934      0.97504  1.0000
  O2          0.79720      0.91262      0.30639  1.0000
  O2          0.08470      0.85858      0.63991  1.0000
  O3          0.87209      0.78222      0.47131  1.0000
  O2          0.21466      0.06948      0.80658  1.0000
  O2          0.92308      0.13119      0.14099  1.0000
  O2          0.21998      0.12023      0.36233  1.0000
  O2          0.91153      0.78450      0.02831  1.0000
  O2          0.87571      0.07002      0.69498  1.0000
  O2          0.79190      0.86169      0.86464  1.0000
  O2          0.08666      0.19681      0.52906  1.0000
  O2          0.13864      0.91773      0.19458  1.0000
  O2          0.94775      0.86978      0.25092  1.0000
  O2          0.14052      0.05564      0.58441  1.0000
  O2          0.93070      0.06386      0.91813  1.0000
  O2          0.06883      0.12195      0.75212  1.0000
  O2          0.87765      0.93630      0.08601  1.0000
  O2          0.07769      0.92431      0.41812  1.0000
  O2          0.89617      0.19880      0.98082  1.0000
  O2          0.80044      0.69459      0.30862  1.0000
  O2          0.30151      0.08071      0.64721  1.0000
  O2          0.08425      0.77296      0.47960  1.0000
  O2          0.21026      0.28537      0.81528  1.0000
  O2          0.70989      0.90617      0.14763  1.0000
  O2          0.21156      0.89785      0.35428  1.0000
  O2          0.70246      0.80818      0.02469  1.0000
  O2          0.09833      0.28669      0.68931  1.0000
  O2          0.80015      0.08468      0.85302  1.0000
  O2          0.30381      0.19657      0.52181  1.0000
  O2          0.91434      0.70411      0.18735  1.0000
  O2          0.33254      0.64610      0.24949  1.0000
  O2          0.35005      0.66092      0.58444  1.0000
  O2          0.33000      0.66365      0.91782  1.0000
  O2          0.67880      0.33727      0.74962  1.0000
  O2          0.65320      0.32649      0.08593  1.0000
  O2          0.68250      0.32047      0.41867  1.0000
  O3          0.36316      0.30730      0.97624  1.0000
  O2          0.67830      0.04207      0.30593  1.0000
  O2          0.95469      0.60922      0.63933  1.0000
  O3          0.62197      0.67333      0.47487  1.0000
  O2          0.33357      0.94010      0.80500  1.0000
  O2          0.05406      0.37825      0.13804  1.0000
  O2          0.33904      0.37302      0.36400  1.0000
  O2          0.04712      0.67027      0.02948  1.0000
  O2          0.62636      0.93681      0.69686  1.0000
  O2          0.67870      0.61221      0.86755  1.0000
  O2          0.95194      0.30800      0.53261  1.0000
  O2          0.38612      0.04898      0.19794  1.0000
  O2          0.77076      0.30017      0.01356  1.0000
  O2          0.70535      0.46490      0.34570  1.0000
  O2          0.53171      0.21206      0.67802  1.0000
  O2          0.22052      0.68109      0.51286  1.0000
  O2          0.31258      0.51756      0.84798  1.0000
  O2          0.47854      0.77372      0.17796  1.0000
  O2          0.31350      0.76985      0.32279  1.0000
  O2          0.47104      0.69296      0.99049  1.0000
  O2          0.22757      0.51792      0.65804  1.0000
  O2          0.69737      0.21310      0.82274  1.0000
  O2          0.53467      0.29735      0.48988  1.0000
  O2          0.78324      0.47172      0.15780  1.0000
  O2          0.78919      0.53269      0.02859  1.0000
  O2          0.47593      0.25725      0.36532  1.0000
  O2          0.74763      0.19532      0.69428  1.0000
  O2          0.21038      0.44873      0.52974  1.0000
  O2          0.53860      0.72671      0.86730  1.0000
  O2          0.26312      0.78980      0.19506  1.0000
  O2          0.54486      0.78242      0.30538  1.0000
  O2          0.26169      0.46061      0.97324  1.0000
  O2          0.21329      0.73608      0.63884  1.0000
  O2          0.46707      0.20059      0.80520  1.0000
  O3          0.76219      0.52159      0.47826  1.0000
  O2          0.79453      0.25357      0.13988  1.0000
  O2          0.24074      0.31258      0.90116  1.0000
  O2          0.68750      0.91084      0.23225  1.0000
  O2          0.08036      0.74801      0.56557  1.0000
  O3          0.78734      0.68465      0.39327  1.0000
  O2          0.32329      0.07324      0.73204  1.0000
  O2          0.91515      0.23258      0.06583  1.0000
  O2          0.33236      0.23647      0.43626  1.0000
  O2          0.91494      0.67853      0.10243  1.0000
  O2          0.77039      0.07595      0.76863  1.0000
  O2          0.68162      0.75234      0.94000  1.0000
  O2          0.09207      0.30597      0.60436  1.0000
  O2          0.24146      0.90937      0.26931  1.0000
  O3          0.60027      0.56515      0.00216  1.0000
  O2          0.44901      0.02993      0.32515  1.0000
  O2          0.96872      0.39357      0.65937  1.0000
  O2          0.41929      0.43883      0.49135  1.0000
  O2          0.56299      0.95247      0.82407  1.0000
  O2          0.04271      0.59602      0.15755  1.0000
  O2          0.56601      0.58254      0.34421  1.0000
  O2          0.03037      0.43910      0.00964  1.0000
  O2          0.41287      0.95366      0.67685  1.0000
  O2          0.44925      0.39968      0.84747  1.0000
  O2          0.96606      0.53562      0.51106  1.0000
  O2          0.59840      0.03270      0.17765  1.0000
  O2          0.59440      0.16829      0.25197  1.0000
  O2          0.83117      0.39798      0.58542  1.0000
  O3          0.60080      0.39856      0.91600  1.0000
  O2          0.41762      0.81558      0.75047  1.0000
  O2          0.17455      0.58577      0.08288  1.0000
  O2          0.42405      0.57956      0.41687  1.0000
  F           0.46390      0.90677      0.25216  1.0000
  F           0.09173      0.52823      0.58633  1.0000
  F           0.47668      0.51405      0.92879  1.0000
  F           0.54740      0.07613      0.75137  1.0000
  F           0.91867      0.45737      0.08509  1.0000
  F           0.58852      0.48692      0.42320  1.0000
