data_cif

_audit_creation_method             'generated by GULP'

_symmetry_space_group_name_H-M     'P 1'
_symmetry_Int_Tables_number        1
_symmetry_cell_setting             triclinic

_cell_length_a                       11.9455
_cell_length_b                       11.9495
_cell_length_c                       29.4664
_cell_angle_alpha                   89.7524
_cell_angle_beta                    90.1745
_cell_angle_gamma                  119.7140

loop_
_atom_site_label
_atom_site_fract_x
_atom_site_fract_y
_atom_site_fract_z
_atom_site_occupancy
  Si          0.69960      0.37570      0.03389  1.0000
  Si          0.62798      0.32331      0.36792  1.0000
  Si          0.68379      0.29230      0.69807  1.0000
  Si          0.30416      0.61805      0.53371  1.0000
  Si          0.39113      0.67431      0.86700  1.0000
  Si          0.33393      0.70888      0.20041  1.0000
  Si          0.38828      0.70540      0.30111  1.0000
  Si          0.32902      0.62155      0.96852  1.0000
  Si          0.30401      0.67156      0.63432  1.0000
  Si          0.63065      0.29447      0.79878  1.0000
  Si          0.68205      0.37771      0.46844  1.0000
  Si          0.71070      0.33168      0.13607  1.0000
  Ge          0.53707      0.43206      0.96618  1.0000
  Si          0.59132      0.11463      0.30282  1.0000
  Si          0.89478      0.46713      0.63439  1.0000
  Si          0.47629      0.58125      0.46851  1.0000
  Si          0.42877      0.88348      0.80008  1.0000
  Si          0.12288      0.53834      0.13501  1.0000
  Si          0.42382      0.53114      0.36676  1.0000
  Si          0.11675      0.58009      0.03333  1.0000
  Si          0.47840      0.88110      0.69864  1.0000
  Si          0.60396      0.46564      0.86716  1.0000
  Si          0.89327      0.41508      0.53287  1.0000
  Si          0.54022      0.12070      0.20119  1.0000
  Si          0.31684      0.39273      0.85277  1.0000
  Si          0.61155      0.91088      0.18616  1.0000
  Si          0.10231      0.69540      0.51912  1.0000
  Si          0.70480      0.60162      0.35343  1.0000
  Si          0.40611      0.09053      0.68442  1.0000
  Si          0.90561      0.30075      0.02145  1.0000
  Si          0.40405      0.30051      0.48315  1.0000
  Si          0.91285      0.61033      0.14826  1.0000
  Si          0.70748      0.09202      0.81365  1.0000
  Si          0.61129      0.70390      0.98902  1.0000
  Si          0.10315      0.39419      0.64923  1.0000
  Si          0.31116      0.90682      0.31684  1.0000
  Si          0.25812      0.33505      0.95475  1.0000
  Si          0.66893      0.91350      0.28675  1.0000
  Si          0.09531      0.74517      0.61977  1.0000
  Si          0.75534      0.65921      0.45402  1.0000
  Si          0.34980      0.08442      0.78515  1.0000
  Si          0.92080      0.26017      0.12240  1.0000
  Si          0.34666      0.25207      0.38237  1.0000
  Si          0.91423      0.65599      0.04681  1.0000
  Si          0.75666      0.08287      0.71317  1.0000
  Si          0.67687      0.74576      0.88632  1.0000
  Si          0.09514      0.33748      0.54854  1.0000
  Si          0.26229      0.91845      0.21622  1.0000
  Si          0.97376      0.12538      0.96841  1.0000
  Si          0.88657      0.84937      0.30313  1.0000
  Si          0.15778      0.02506      0.63482  1.0000
  Si          0.03520      0.87710      0.46874  1.0000
  Si          0.13175      0.14653      0.80188  1.0000
  Si          0.86376      0.98352      0.13893  1.0000
  Si          0.12975      0.97249      0.36800  1.0000
  Ge          0.86048      0.88528      0.03670  1.0000
  Si          0.03750      0.14709      0.70059  1.0000
  Si          0.88827      0.02785      0.86720  1.0000
  Si          0.15679      0.11939      0.53390  1.0000
  Si          0.98218      0.85551      0.20227  1.0000
  O3          0.94819      0.00799      0.99962  1.0000
  O2          0.00592      0.92987      0.33652  1.0000
  O2          0.08200      0.06753      0.66913  1.0000
  O2          0.07644      0.99714      0.50194  1.0000
  O2          0.01264      0.06798      0.83577  1.0000
  O2          0.93920      0.94263      0.17435  1.0000
  O2          0.34886      0.58146      0.33382  1.0000
  O2          0.42820      0.75521      0.66668  1.0000
  O2          0.24015      0.65671      0.99962  1.0000
  O2          0.67366      0.42129      0.82954  1.0000
  O2          0.58907      0.24782      0.16960  1.0000
  O2          0.76747      0.33850      0.50085  1.0000
  O3          0.58121      0.34047      0.00238  1.0000
  O2          0.76773      0.41656      0.66606  1.0000
  O2          0.66739      0.23903      0.33558  1.0000
  O2          0.42693      0.65741      0.50099  1.0000
  O2          0.24917      0.58782      0.16727  1.0000
  O2          0.35530      0.75784      0.83297  1.0000
  O2          0.12522      0.22024      0.97336  1.0000
  O2          0.79566      0.91341      0.30666  1.0000
  O2          0.09404      0.87081      0.63990  1.0000
  O2          0.88107      0.78604      0.47384  1.0000
  O2          0.22231      0.08180      0.80552  1.0000
  O2          0.92285      0.13680      0.14462  1.0000
  O2          0.22016      0.12659      0.36235  1.0000
  O3          0.91537      0.77990      0.02551  1.0000
  O2          0.88355      0.08277      0.69371  1.0000
  O2          0.79899      0.87281      0.86486  1.0000
  O2          0.09383      0.21094      0.52821  1.0000
  O2          0.13603      0.91881      0.19601  1.0000
  O2          0.94437      0.85836      0.25387  1.0000
  O2          0.14288      0.06726      0.58477  1.0000
  O2          0.93510      0.07554      0.91740  1.0000
  O2          0.07487      0.13592      0.75196  1.0000
  O3          0.89171      0.94668      0.09030  1.0000
  O2          0.07797      0.93297      0.41872  1.0000
  O2          0.89769      0.19940      0.98308  1.0000
  O2          0.80339      0.69819      0.31536  1.0000
  O2          0.30974      0.09241      0.64591  1.0000
  O2          0.10430      0.79398      0.48069  1.0000
  O2          0.21894      0.29777      0.81412  1.0000
  O2          0.70959      0.91180      0.14766  1.0000
  O2          0.21245      0.90357      0.35543  1.0000
  O3          0.69778      0.81310      0.02535  1.0000
  O2          0.10583      0.29818      0.68797  1.0000
  O2          0.80643      0.09508      0.85181  1.0000
  O2          0.30804      0.20133      0.52155  1.0000
  O2          0.91105      0.70752      0.18618  1.0000
  O2          0.33295      0.64971      0.25059  1.0000
  O2          0.36136      0.67298      0.58410  1.0000
  O2          0.33205      0.67147      0.91671  1.0000
  O2          0.68574      0.34890      0.74831  1.0000
  O2          0.65210      0.32875      0.08617  1.0000
  O2          0.68370      0.32145      0.41834  1.0000
  O3          0.37001      0.31653      0.97495  1.0000
  O2          0.67888      0.04536      0.30575  1.0000
  O2          0.96310      0.62307      0.63822  1.0000
  O2          0.63229      0.66888      0.47211  1.0000
  O2          0.34137      0.95253      0.80412  1.0000
  O2          0.05360      0.38257      0.14006  1.0000
  O2          0.33662      0.37498      0.36403  1.0000
  O2          0.04887      0.66792      0.02964  1.0000
  O2          0.63467      0.94942      0.69561  1.0000
  O2          0.68705      0.62418      0.86732  1.0000
  O2          0.96266      0.32775      0.53021  1.0000
  O2          0.38390      0.05150      0.19821  1.0000
  O2          0.77147      0.29942      0.01478  1.0000
  O2          0.70363      0.46695      0.34589  1.0000
  O2          0.53963      0.22403      0.67659  1.0000
  O2          0.23580      0.69410      0.51177  1.0000
  O2          0.32151      0.52975      0.84671  1.0000
  O2          0.47754      0.77770      0.17820  1.0000
  O2          0.31248      0.77289      0.32368  1.0000
  O2          0.47291      0.69934      0.98905  1.0000
  O2          0.23631      0.52841      0.65690  1.0000
  O2          0.70401      0.22415      0.82149  1.0000
  O2          0.53906      0.30187      0.49094  1.0000
  O2          0.78121      0.47574      0.15758  1.0000
  O2          0.78962      0.53118      0.02742  1.0000
  O2          0.47205      0.25081      0.36293  1.0000
  O2          0.75571      0.20794      0.69292  1.0000
  O2          0.22144      0.46231      0.52904  1.0000
  O2          0.54555      0.73795      0.86820  1.0000
  O2          0.26102      0.79241      0.19636  1.0000
  O2          0.54426      0.78626      0.30611  1.0000
  O2          0.26625      0.46806      0.97159  1.0000
  O2          0.22229      0.74644      0.63940  1.0000
  O2          0.47437      0.21260      0.80394  1.0000
  O2          0.75661      0.53366      0.47379  1.0000
  O2          0.79388      0.25860      0.14152  1.0000
  O2          0.24916      0.32329      0.89958  1.0000
  O2          0.68640      0.91338      0.23242  1.0000
  O2          0.09706      0.76498      0.56548  1.0000
  O2          0.77470      0.67613      0.39977  1.0000
  O2          0.33123      0.08531      0.73086  1.0000
  O2          0.91566      0.23391      0.06828  1.0000
  O2          0.32954      0.23169      0.43670  1.0000
  O2          0.91054      0.67926      0.10110  1.0000
  O2          0.77764      0.08766      0.76740  1.0000
  O2          0.68957      0.76164      0.94068  1.0000
  O2          0.09822      0.31961      0.60290  1.0000
  O2          0.24220      0.91464      0.27055  1.0000
  O3          0.60445      0.57258      0.00216  1.0000
  O2          0.45042      0.03117      0.32614  1.0000
  O2          0.97741      0.40818      0.65809  1.0000
  O2          0.41779      0.43994      0.49191  1.0000
  O2          0.57029      0.96412      0.82304  1.0000
  O2          0.04164      0.60088      0.15679  1.0000
  O2          0.56547      0.58790      0.34430  1.0000
  O2          0.03326      0.43783      0.01106  1.0000
  O2          0.42110      0.96561      0.67555  1.0000
  O2          0.45887      0.41277      0.84636  1.0000
  O2          0.97759      0.55644      0.51000  1.0000
  O2          0.59686      0.03640      0.17776  1.0000
  O2          0.59215      0.17049      0.25234  1.0000
  O2          0.84102      0.41530      0.58371  1.0000
  O3          0.60997      0.41025      0.91539  1.0000
  O2          0.42563      0.82794      0.74960  1.0000
  O2          0.17640      0.58547      0.08361  1.0000
  O2          0.42336      0.58307      0.41772  1.0000
  F           0.46266      0.90923      0.25186  1.0000
  F           0.10184      0.54474      0.58475  1.0000
  F           0.48457      0.52439      0.92818  1.0000
  F           0.55475      0.08762      0.74985  1.0000
  F           0.91814      0.45883      0.08528  1.0000
  F           0.55473      0.45193      0.41875  1.0000
