data_cif

_audit_creation_method             'generated by GULP'

_symmetry_space_group_name_H-M     'P 1'
_symmetry_Int_Tables_number        1
_symmetry_cell_setting             triclinic

_cell_length_a                       11.9677
_cell_length_b                       11.9327
_cell_length_c                       29.4619
_cell_angle_alpha                   89.6280
_cell_angle_beta                    90.0792
_cell_angle_gamma                  119.6746

loop_
_atom_site_label
_atom_site_fract_x
_atom_site_fract_y
_atom_site_fract_z
_atom_site_occupancy
  Si          0.69960      0.37570      0.03389  1.0000
  Si          0.62225      0.31492      0.36897  1.0000
  Si          0.67865      0.28278      0.69853  1.0000
  Si          0.30139      0.61137      0.53440  1.0000
  Si          0.38510      0.66482      0.86785  1.0000
  Si          0.32958      0.69888      0.20003  1.0000
  Si          0.37755      0.69531      0.30134  1.0000
  Si          0.32599      0.61368      0.97011  1.0000
  Si          0.29959      0.66314      0.63522  1.0000
  Si          0.62444      0.28424      0.79909  1.0000
  Si          0.67942      0.37268      0.46893  1.0000
  Si          0.70903      0.32439      0.13556  1.0000
  Ge          0.53012      0.42259      0.96620  1.0000
  Si          0.58076      0.10767      0.30258  1.0000
  Si          0.89042      0.45861      0.63510  1.0000
  Si          0.47439      0.57672      0.46885  1.0000
  Si          0.42327      0.87447      0.80109  1.0000
  Si          0.11949      0.52949      0.13490  1.0000
  Si          0.41797      0.52503      0.36738  1.0000
  Si          0.11313      0.57853      0.03357  1.0000
  Si          0.47351      0.87186      0.69965  1.0000
  Si          0.59611      0.45481      0.86709  1.0000
  Si          0.88980      0.40797      0.53353  1.0000
  Si          0.53658      0.11253      0.20062  1.0000
  Si          0.30932      0.38282      0.85405  1.0000
  Si          0.60793      0.90116      0.18719  1.0000
  Si          0.09919      0.68825      0.52022  1.0000
  Si          0.69712      0.59212      0.35251  1.0000
  Si          0.40133      0.08167      0.68511  1.0000
  Si          0.90415      0.29950      0.01997  1.0000
  Si          0.40169      0.29571      0.48472  1.0000
  Si          0.91103      0.60149      0.14963  1.0000
  Si          0.70175      0.08230      0.81470  1.0000
  Si          0.60858      0.69532      0.98859  1.0000
  Si          0.09824      0.38556      0.64988  1.0000
  Si          0.30107      0.89807      0.31507  1.0000
  Si          0.25150      0.32517      0.95635  1.0000
  Si          0.65683      0.90498      0.28828  1.0000
  Si          0.09124      0.73691      0.62083  1.0000
  Si          0.75265      0.65475      0.45263  1.0000
  Si          0.34400      0.07533      0.78584  1.0000
  Si          0.91799      0.25209      0.12048  1.0000
  Si          0.34329      0.24678      0.38414  1.0000
  Si          0.91250      0.65647      0.04871  1.0000
  Si          0.75137      0.07308      0.71413  1.0000
  Si          0.66982      0.73556      0.88545  1.0000
  Si          0.09157      0.33055      0.54915  1.0000
  Si          0.25848      0.90968      0.21392  1.0000
  Si          0.96679      0.11709      0.96904  1.0000
  Ge          0.88027      0.84468      0.30272  1.0000
  Si          0.15355      0.01694      0.63581  1.0000
  Si          0.03289      0.87084      0.46953  1.0000
  Si          0.12583      0.13723      0.80282  1.0000
  Si          0.85660      0.97242      0.13630  1.0000
  Si          0.12637      0.96843      0.36875  1.0000
  Si          0.85304      0.87892      0.03574  1.0000
  Si          0.03208      0.13788      0.70153  1.0000
  Si          0.88231      0.01790      0.86803  1.0000
  Si          0.15370      0.11262      0.53490  1.0000
  Si          0.98149      0.85006      0.19990  1.0000
  O2          0.93101      0.99749      0.00193  1.0000
  O3          0.00275      0.93345      0.33975  1.0000
  O2          0.07749      0.05871      0.67027  1.0000
  O2          0.07333      0.98998      0.50318  1.0000
  O2          0.00688      0.05840      0.83678  1.0000
  O2          0.93710      0.93116      0.16870  1.0000
  O2          0.33968      0.57245      0.33476  1.0000
  O2          0.42317      0.74603      0.66769  1.0000
  O2          0.23845      0.65284      0.00034  1.0000
  O2          0.66632      0.41124      0.82954  1.0000
  O2          0.58674      0.23919      0.16860  1.0000
  O2          0.76443      0.33340      0.50146  1.0000
  O3          0.58034      0.33698      0.00268  1.0000
  O2          0.76293      0.40741      0.66654  1.0000
  O2          0.65850      0.22990      0.33591  1.0000
  O2          0.42459      0.65201      0.50172  1.0000
  O2          0.24599      0.57768      0.16685  1.0000
  O2          0.34871      0.74890      0.83417  1.0000
  O2          0.11864      0.20750      0.97467  1.0000
  O3          0.78081      0.90855      0.31000  1.0000
  O2          0.08985      0.86252      0.64097  1.0000
  O2          0.87835      0.78094      0.47257  1.0000
  O2          0.21669      0.07286      0.80622  1.0000
  O2          0.91835      0.12615      0.14143  1.0000
  O2          0.21905      0.12218      0.36376  1.0000
  O2          0.91056      0.78308      0.02896  1.0000
  O2          0.87835      0.07306      0.69481  1.0000
  O2          0.79269      0.86307      0.86449  1.0000
  O2          0.09079      0.20420      0.52883  1.0000
  O2          0.13459      0.91085      0.19217  1.0000
  O3          0.95049      0.86845      0.25062  1.0000
  O2          0.13888      0.06009      0.58584  1.0000
  O2          0.92916      0.06304      0.91854  1.0000
  O2          0.06931      0.12723      0.75295  1.0000
  O2          0.87154      0.93300      0.08602  1.0000
  O2          0.08077      0.92791      0.42011  1.0000
  O2          0.89737      0.19928      0.98114  1.0000
  O3          0.79274      0.68153      0.31309  1.0000
  O2          0.30522      0.08386      0.64669  1.0000
  O2          0.10046      0.78671      0.48191  1.0000
  O2          0.21169      0.28815      0.81550  1.0000
  O2          0.70554      0.90135      0.14892  1.0000
  O2          0.20140      0.89386      0.35321  1.0000
  O2          0.70122      0.80646      0.02415  1.0000
  O2          0.10020      0.28898      0.68866  1.0000
  O2          0.80075      0.08584      0.85293  1.0000
  O2          0.30529      0.19576      0.52306  1.0000
  O2          0.90953      0.69817      0.18805  1.0000
  O2          0.32520      0.63957      0.25063  1.0000
  O2          0.35720      0.66523      0.58495  1.0000
  O2          0.32962      0.66286      0.91809  1.0000
  O2          0.68013      0.33933      0.74869  1.0000
  O2          0.65170      0.32541      0.08590  1.0000
  O2          0.67869      0.31312      0.41923  1.0000
  O3          0.36371      0.30654      0.97599  1.0000
  O2          0.66654      0.03762      0.30586  1.0000
  O2          0.95879      0.61466      0.63912  1.0000
  O2          0.63025      0.66436      0.47160  1.0000
  O2          0.33572      0.94334      0.80487  1.0000
  O2          0.05073      0.37312      0.13874  1.0000
  O2          0.33177      0.36885      0.36565  1.0000
  O2          0.04614      0.66818      0.03010  1.0000
  O2          0.62949      0.93981      0.69661  1.0000
  O2          0.67941      0.61345      0.86677  1.0000
  O2          0.95935      0.32071      0.53069  1.0000
  O2          0.38098      0.04281      0.19648  1.0000
  O2          0.77151      0.30054      0.01366  1.0000
  O2          0.69736      0.45773      0.34659  1.0000
  O2          0.53496      0.21486      0.67705  1.0000
  O2          0.23262      0.68735      0.51269  1.0000
  O2          0.31398      0.51997      0.84785  1.0000
  O2          0.47415      0.76814      0.17887  1.0000
  O2          0.30110      0.76343      0.32276  1.0000
  O2          0.47020      0.69093      0.99048  1.0000
  O2          0.23135      0.51943      0.65764  1.0000
  O2          0.69805      0.21459      0.82215  1.0000
  O2          0.53726      0.29849      0.49212  1.0000
  O2          0.77891      0.46707      0.15821  1.0000
  O2          0.78872      0.53226      0.02880  1.0000
  O2          0.46716      0.24354      0.36467  1.0000
  O2          0.75051      0.19824      0.69363  1.0000
  O2          0.21812      0.45555      0.52973  1.0000
  O2          0.53919      0.72798      0.86718  1.0000
  O2          0.25803      0.78337      0.19478  1.0000
  O2          0.53237      0.77674      0.30728  1.0000
  O2          0.26159      0.45921      0.97365  1.0000
  O2          0.21777      0.73783      0.64044  1.0000
  O2          0.46850      0.20313      0.80452  1.0000
  O2          0.75506      0.52920      0.47230  1.0000
  O2          0.79148      0.25031      0.14009  1.0000
  O2          0.24184      0.31425      0.90116  1.0000
  O2          0.67930      0.90120      0.23402  1.0000
  O2          0.09379      0.75765      0.56658  1.0000
  O2          0.76990      0.67252      0.39805  1.0000
  O2          0.32635      0.07667      0.73153  1.0000
  O2          0.91443      0.23078      0.06623  1.0000
  O2          0.32682      0.22694      0.43852  1.0000
  O2          0.91207      0.67467      0.10306  1.0000
  O2          0.77161      0.07751      0.76840  1.0000
  O2          0.68146      0.75111      0.93963  1.0000
  O2          0.09369      0.31151      0.60350  1.0000
  O2          0.23373      0.90454      0.26816  1.0000
  O3          0.60001      0.56371      0.00189  1.0000
  O2          0.43846      0.02395      0.32475  1.0000
  O2          0.97259      0.39930      0.65885  1.0000
  O2          0.41634      0.43585      0.49293  1.0000
  O2          0.56432      0.95483      0.82414  1.0000
  O2          0.03784      0.58923      0.15840  1.0000
  O2          0.55818      0.57983      0.34401  1.0000
  O2          0.03069      0.43789      0.01010  1.0000
  O2          0.41639      0.95656      0.67648  1.0000
  O2          0.45059      0.40192      0.84713  1.0000
  O2          0.97452      0.54974      0.51092  1.0000
  O2          0.59567      0.02838      0.17886  1.0000
  O2          0.58409      0.16409      0.25191  1.0000
  O2          0.83722      0.40727      0.58440  1.0000
  O3          0.60193      0.39954      0.91539  1.0000
  O2          0.42077      0.81876      0.75070  1.0000
  O2          0.17214      0.58146      0.08371  1.0000
  O2          0.42016      0.57854      0.41831  1.0000
  F           0.45561      0.90040      0.25170  1.0000
  F           0.09743      0.53667      0.58562  1.0000
  F           0.47685      0.51418      0.92859  1.0000
  F           0.54952      0.07858      0.75066  1.0000
  F           0.91676      0.45473      0.08529  1.0000
  F           0.55191      0.44777      0.41905  1.0000
