data_cif

_audit_creation_method             'generated by GULP'

_symmetry_space_group_name_H-M     'P 1'
_symmetry_Int_Tables_number        1
_symmetry_cell_setting             triclinic

_cell_length_a                       11.9678
_cell_length_b                       11.9480
_cell_length_c                       29.4645
_cell_angle_alpha                   89.7485
_cell_angle_beta                    90.0855
_cell_angle_gamma                  119.8058

loop_
_atom_site_label
_atom_site_fract_x
_atom_site_fract_y
_atom_site_fract_z
_atom_site_occupancy
  Si          0.69960      0.37570      0.03389  1.0000
  Si          0.62184      0.31483      0.36865  1.0000
  Si          0.67700      0.27971      0.69881  1.0000
  Si          0.29944      0.60774      0.53525  1.0000
  Si          0.38346      0.66379      0.86853  1.0000
  Si          0.33079      0.69515      0.20125  1.0000
  Si          0.38050      0.69480      0.30254  1.0000
  Si          0.32567      0.61298      0.97084  1.0000
  Si          0.29691      0.65995      0.63595  1.0000
  Si          0.62377      0.28307      0.79935  1.0000
  Si          0.67728      0.36816      0.46913  1.0000
  Si          0.70618      0.31985      0.13504  1.0000
  Ge          0.53002      0.42233      0.96604  1.0000
  Si          0.58399      0.10568      0.30329  1.0000
  Si          0.88805      0.45484      0.63503  1.0000
  Si          0.47243      0.57215      0.47006  1.0000
  Si          0.42157      0.87332      0.80203  1.0000
  Si          0.11996      0.52783      0.13578  1.0000
  Si          0.41828      0.52263      0.36835  1.0000
  Si          0.11377      0.57887      0.03460  1.0000
  Si          0.47085      0.86890      0.70061  1.0000
  Si          0.59515      0.45436      0.86691  1.0000
  Si          0.88795      0.40375      0.53346  1.0000
  Si          0.53954      0.11011      0.20135  1.0000
  Si          0.30802      0.38220      0.85429  1.0000
  Si          0.60878      0.89828      0.18820  1.0000
  Si          0.09768      0.68441      0.52041  1.0000
  Si          0.69890      0.59343      0.35411  1.0000
  Si          0.39895      0.07832      0.68583  1.0000
  Si          0.90466      0.30016      0.01948  1.0000
  Si          0.39959      0.29091      0.48451  1.0000
  Si          0.90901      0.59575      0.15071  1.0000
  Si          0.70073      0.08151      0.81541  1.0000
  Si          0.60894      0.69482      0.98874  1.0000
  Si          0.09565      0.38197      0.65025  1.0000
  Si          0.30258      0.89656      0.31612  1.0000
  Si          0.25112      0.32472      0.95661  1.0000
  Si          0.66105      0.90341      0.28924  1.0000
  Si          0.08876      0.73344      0.62100  1.0000
  Si          0.75092      0.65004      0.45477  1.0000
  Si          0.34261      0.07386      0.78654  1.0000
  Si          0.91718      0.25137      0.11984  1.0000
  Si          0.34121      0.24331      0.38379  1.0000
  Si          0.91333      0.65669      0.05040  1.0000
  Si          0.74933      0.07036      0.71485  1.0000
  Si          0.66870      0.73476      0.88559  1.0000
  Si          0.08962      0.32662      0.54952  1.0000
  Si          0.26179      0.90690      0.21491  1.0000
  Si          0.96639      0.11605      0.96948  1.0000
  Si          0.88008      0.84408      0.30552  1.0000
  Si          0.15112      0.01348      0.63623  1.0000
  Si          0.03161      0.86691      0.47022  1.0000
  Si          0.12462      0.13601      0.80319  1.0000
  Si          0.85672      0.97266      0.13694  1.0000
  Si          0.12409      0.96379      0.36940  1.0000
  Si          0.85358      0.87830      0.03645  1.0000
  Si          0.02992      0.13472      0.70191  1.0000
  Si          0.88118      0.01697      0.86845  1.0000
  Si          0.15225      0.10921      0.53533  1.0000
  Ge          0.97921      0.84590      0.20255  1.0000
  O2          0.93106      0.99781      0.00294  1.0000
  O2          0.99677      0.92150      0.34034  1.0000
  O2          0.07473      0.05515      0.67058  1.0000
  O2          0.07183      0.98598      0.50382  1.0000
  O2          0.00569      0.05771      0.83718  1.0000
  O3          0.94052      0.94029      0.17001  1.0000
  O2          0.34163      0.57190      0.33587  1.0000
  O2          0.42014      0.74272      0.66873  1.0000
  O2          0.23940      0.65295      0.00144  1.0000
  O2          0.66556      0.41082      0.82944  1.0000
  O2          0.58570      0.23469      0.16870  1.0000
  O2          0.76267      0.32832      0.50121  1.0000
  O3          0.58121      0.33741      0.00224  1.0000
  O2          0.76049      0.40347      0.66645  1.0000
  O2          0.65971      0.22994      0.33608  1.0000
  O2          0.42301      0.64769      0.50286  1.0000
  O2          0.24609      0.57405      0.16794  1.0000
  O2          0.34696      0.74808      0.83517  1.0000
  O2          0.11850      0.20659      0.97496  1.0000
  O2          0.78626      0.90443      0.31072  1.0000
  O2          0.08693      0.85896      0.64100  1.0000
  O2          0.87727      0.77649      0.47444  1.0000
  O2          0.21567      0.07210      0.80692  1.0000
  O2          0.91656      0.12609      0.14070  1.0000
  O2          0.21502      0.11797      0.36362  1.0000
  O2          0.91181      0.78296      0.03023  1.0000
  O2          0.87590      0.06961      0.69549  1.0000
  O2          0.79107      0.86228      0.86441  1.0000
  O2          0.08928      0.20051      0.52922  1.0000
  O3          0.14145      0.91019      0.19302  1.0000
  O3          0.94304      0.86576      0.25700  1.0000
  O2          0.13790      0.05778      0.58635  1.0000
  O2          0.92799      0.06015      0.91917  1.0000
  O2          0.06818      0.12482      0.75324  1.0000
  O2          0.87128      0.93002      0.08699  1.0000
  O2          0.07874      0.92474      0.42072  1.0000
  O2          0.89786      0.19957      0.98075  1.0000
  O2          0.79708      0.69066      0.31583  1.0000
  O2          0.30273      0.08010      0.64741  1.0000
  O2          0.09975      0.78313      0.48210  1.0000
  O2          0.21017      0.28721      0.81572  1.0000
  O2          0.70535      0.89764      0.14980  1.0000
  O2          0.20338      0.89349      0.35436  1.0000
  O2          0.70188      0.80573      0.02440  1.0000
  O2          0.09768      0.28566      0.68898  1.0000
  O2          0.80003      0.08547      0.85367  1.0000
  O2          0.30353      0.19139      0.52296  1.0000
  O3          0.90172      0.68469      0.19020  1.0000
  O2          0.32715      0.63740      0.25198  1.0000
  O2          0.35520      0.66215      0.58581  1.0000
  O2          0.32843      0.66174      0.91885  1.0000
  O2          0.67933      0.33722      0.74890  1.0000
  O2          0.64912      0.32109      0.08534  1.0000
  O2          0.67830      0.31251      0.41885  1.0000
  O3          0.36359      0.30631      0.97606  1.0000
  O2          0.67017      0.03554      0.30734  1.0000
  O2          0.95618      0.61086      0.63913  1.0000
  O2          0.62841      0.65977      0.47338  1.0000
  O2          0.33416      0.94219      0.80576  1.0000
  O2          0.05010      0.37154      0.13866  1.0000
  O2          0.33108      0.36633      0.36572  1.0000
  O2          0.04683      0.66842      0.03150  1.0000
  O2          0.62696      0.93680      0.69754  1.0000
  O2          0.67840      0.61299      0.86670  1.0000
  O2          0.95749      0.31663      0.53087  1.0000
  O2          0.38437      0.04052      0.19809  1.0000
  O2          0.77273      0.30246      0.01313  1.0000
  O2          0.69740      0.45857      0.34644  1.0000
  O2          0.53282      0.21129      0.67757  1.0000
  O2          0.23135      0.68375      0.51323  1.0000
  O2          0.31219      0.51899      0.84833  1.0000
  O2          0.47551      0.76422      0.18018  1.0000
  O2          0.30429      0.76299      0.32407  1.0000
  O2          0.47050      0.69019      0.99090  1.0000
  O2          0.22857      0.51624      0.65823  1.0000
  O2          0.69750      0.21404      0.82264  1.0000
  O2          0.53451      0.29222      0.49187  1.0000
  O2          0.77572      0.46180      0.15772  1.0000
  O2          0.78834      0.53263      0.03068  1.0000
  O2          0.46613      0.24213      0.36405  1.0000
  O2          0.74864      0.19511      0.69411  1.0000
  O2          0.21640      0.45193      0.53038  1.0000
  O2          0.53768      0.72693      0.86766  1.0000
  O2          0.25988      0.77968      0.19584  1.0000
  O2          0.53588      0.77615      0.30830  1.0000
  O2          0.26111      0.45848      0.97418  1.0000
  O2          0.21517      0.73465      0.64090  1.0000
  O2          0.46769      0.20201      0.80497  1.0000
  O2          0.75215      0.52426      0.47441  1.0000
  O2          0.78952      0.24723      0.13914  1.0000
  O2          0.24093      0.31367      0.90142  1.0000
  O2          0.68156      0.90072      0.23501  1.0000
  O2          0.09170      0.75375      0.56674  1.0000
  O2          0.76926      0.66743      0.40047  1.0000
  O2          0.32433      0.07405      0.73224  1.0000
  O2          0.91464      0.23128      0.06557  1.0000
  O2          0.32459      0.22252      0.43813  1.0000
  O2          0.91438      0.67550      0.10499  1.0000
  O2          0.77020      0.07599      0.76912  1.0000
  O2          0.68141      0.75068      0.93976  1.0000
  O2          0.09134      0.30788      0.60387  1.0000
  O2          0.23395      0.90040      0.26919  1.0000
  O3          0.60069      0.56342      0.00178  1.0000
  O2          0.44096      0.02275      0.32514  1.0000
  O2          0.96984      0.39555      0.65893  1.0000
  O2          0.41405      0.43062      0.49344  1.0000
  O2          0.56300      0.95421      0.82500  1.0000
  O2          0.03733      0.58589      0.15962  1.0000
  O2          0.55938      0.57924      0.34542  1.0000
  O2          0.03153      0.43898      0.01042  1.0000
  O2          0.41358      0.95306      0.67736  1.0000
  O2          0.44935      0.40154      0.84708  1.0000
  O2          0.97317      0.54552      0.51090  1.0000
  O2          0.59720      0.02527      0.17932  1.0000
  O2          0.58985      0.16200      0.25247  1.0000
  O2          0.83506      0.40333      0.58427  1.0000
  O3          0.60124      0.39924      0.91515  1.0000
  O2          0.41842      0.81670      0.75171  1.0000
  O2          0.17277      0.58125      0.08472  1.0000
  O2          0.41911      0.57452      0.41942  1.0000
  F           0.45740      0.89828      0.25261  1.0000
  F           0.09552      0.53327      0.58592  1.0000
  F           0.47616      0.51363      0.92868  1.0000
  F           0.54786      0.07653      0.75139  1.0000
  F           0.91686      0.45530      0.08587  1.0000
  F           0.54986      0.44312      0.41984  1.0000
