data_cif

_audit_creation_method             'generated by GULP'

_symmetry_space_group_name_H-M     'P 1'
_symmetry_Int_Tables_number        1
_symmetry_cell_setting             triclinic

_cell_length_a                       11.9463
_cell_length_b                       11.9503
_cell_length_c                       29.4637
_cell_angle_alpha                   89.5593
_cell_angle_beta                    90.1216
_cell_angle_gamma                  119.6655

loop_
_atom_site_label
_atom_site_fract_x
_atom_site_fract_y
_atom_site_fract_z
_atom_site_occupancy
  Si          0.69960      0.37570      0.03389  1.0000
  Si          0.62103      0.31544      0.36695  1.0000
  Si          0.67741      0.28173      0.69833  1.0000
  Si          0.30333      0.61663      0.53419  1.0000
  Si          0.38495      0.66617      0.86832  1.0000
  Si          0.32816      0.69931      0.20038  1.0000
  Si          0.38206      0.69716      0.30126  1.0000
  Si          0.32652      0.61412      0.97060  1.0000
  Si          0.29970      0.66246      0.63535  1.0000
  Si          0.62393      0.28516      0.79890  1.0000
  Si          0.67986      0.37108      0.46691  1.0000
  Si          0.70725      0.32350      0.13557  1.0000
  Ge          0.53136      0.42417      0.96611  1.0000
  Si          0.58469      0.10704      0.30179  1.0000
  Si          0.88907      0.45681      0.63429  1.0000
  Si          0.47214      0.57589      0.46867  1.0000
  Si          0.42218      0.87544      0.80154  1.0000
  Si          0.11779      0.52850      0.13549  1.0000
  Si          0.41738      0.52310      0.36716  1.0000
  Si          0.11326      0.57803      0.03414  1.0000
  Si          0.47202      0.87077      0.70013  1.0000
  Si          0.59721      0.45667      0.86695  1.0000
  Si          0.88949      0.41232      0.53250  1.0000
  Si          0.53417      0.11124      0.20011  1.0000
  Si          0.30983      0.38494      0.85440  1.0000
  Si          0.60575      0.90142      0.18598  1.0000
  Si          0.10017      0.69270      0.52041  1.0000
  Si          0.69799      0.59428      0.35172  1.0000
  Si          0.39987      0.08028      0.68500  1.0000
  Si          0.90432      0.29941      0.02051  1.0000
  Si          0.40383      0.29624      0.48377  1.0000
  Si          0.90888      0.60038      0.14979  1.0000
  Si          0.70113      0.08320      0.81505  1.0000
  Si          0.60993      0.69624      0.98885  1.0000
  Si          0.09845      0.38364      0.64831  1.0000
  Si          0.30518      0.89895      0.31578  1.0000
  Si          0.25207      0.32620      0.95663  1.0000
  Si          0.66236      0.90575      0.28665  1.0000
  Si          0.09051      0.73543      0.62147  1.0000
  Si          0.74956      0.65086      0.45222  1.0000
  Si          0.34307      0.07611      0.78571  1.0000
  Si          0.91687      0.25124      0.12106  1.0000
  Si          0.33986      0.24397      0.38361  1.0000
  Si          0.91229      0.65608      0.04885  1.0000
  Si          0.75001      0.07249      0.71455  1.0000
  Si          0.67036      0.73670      0.88562  1.0000
  Si          0.09280      0.33651      0.54709  1.0000
  Si          0.25624      0.90921      0.21516  1.0000
  Si          0.96712      0.11738      0.96963  1.0000
  Si          0.88086      0.84339      0.30198  1.0000
  Si          0.14937      0.01274      0.63733  1.0000
  Si          0.02830      0.86814      0.46783  1.0000
  Si          0.12565      0.13974      0.80339  1.0000
  Si          0.85565      0.97175      0.13667  1.0000
  Si          0.12371      0.96457      0.36706  1.0000
  Si          0.85444      0.87933      0.03626  1.0000
  Si          0.03098      0.13744      0.70211  1.0000
  Si          0.88202      0.01910      0.86859  1.0000
  Ge          0.15253      0.11354      0.53429  1.0000
  Si          0.97624      0.84673      0.20116  1.0000
  O2          0.93269      0.99854      0.00273  1.0000
  O2          0.00102      0.92295      0.33503  1.0000
  O2          0.07629      0.05410      0.67344  1.0000
  O3          0.06156      0.98588      0.49987  1.0000
  O2          0.00767      0.06071      0.83776  1.0000
  O2          0.93376      0.92970      0.17025  1.0000
  O2          0.34204      0.57346      0.33433  1.0000
  O2          0.42226      0.74458      0.66846  1.0000
  O2          0.23898      0.65276      0.00106  1.0000
  O2          0.66631      0.41240      0.82915  1.0000
  O2          0.58390      0.23815      0.16828  1.0000
  O2          0.76641      0.33442      0.49966  1.0000
  O3          0.58078      0.33758      0.00240  1.0000
  O2          0.76192      0.40535      0.66600  1.0000
  O2          0.65979      0.23178      0.33419  1.0000
  O2          0.42586      0.65470      0.50124  1.0000
  O2          0.24405      0.57745      0.16768  1.0000
  O2          0.34805      0.75034      0.83485  1.0000
  O2          0.11925      0.20812      0.97484  1.0000
  O2          0.78928      0.90643      0.30679  1.0000
  O2          0.08815      0.85868      0.64298  1.0000
  O2          0.87481      0.77514      0.47227  1.0000
  O2          0.21589      0.07448      0.80592  1.0000
  O2          0.91754      0.12530      0.14184  1.0000
  O2          0.21355      0.11926      0.36336  1.0000
  O2          0.91127      0.78307      0.02909  1.0000
  O2          0.87715      0.07289      0.69506  1.0000
  O2          0.79285      0.86453      0.86463  1.0000
  O3          0.08990      0.21386      0.52498  1.0000
  O2          0.13009      0.90990      0.19504  1.0000
  O2          0.93753      0.85680      0.25214  1.0000
  O3          0.12589      0.05287      0.58856  1.0000
  O2          0.92775      0.06269      0.91930  1.0000
  O2          0.06729      0.13247      0.75407  1.0000
  O2          0.87405      0.93241      0.08676  1.0000
  O2          0.07140      0.92108      0.41740  1.0000
  O2          0.89755      0.19926      0.98180  1.0000
  O2          0.79706      0.69138      0.31359  1.0000
  O2          0.30297      0.08109      0.64642  1.0000
  O2          0.10311      0.79174      0.48203  1.0000
  O2          0.21222      0.29028      0.81595  1.0000
  O2          0.70330      0.90150      0.14760  1.0000
  O2          0.20670      0.89654      0.35419  1.0000
  O2          0.70243      0.80725      0.02446  1.0000
  O2          0.10040      0.28666      0.68682  1.0000
  O2          0.80023      0.08693      0.85341  1.0000
  O3          0.31487      0.19882      0.52327  1.0000
  O2          0.90661      0.69654      0.18806  1.0000
  O2          0.32700      0.64122      0.25086  1.0000
  O2          0.35892      0.66796      0.58501  1.0000
  O2          0.32950      0.66346      0.91862  1.0000
  O2          0.67905      0.33916      0.74831  1.0000
  O2          0.65071      0.32499      0.08578  1.0000
  O2          0.68049      0.31476      0.41681  1.0000
  O3          0.36480      0.30784      0.97602  1.0000
  O2          0.67221      0.03777      0.30524  1.0000
  O2          0.95801      0.61230      0.63912  1.0000
  O2          0.62807      0.66206      0.47105  1.0000
  O2          0.33458      0.94440      0.80509  1.0000
  O2          0.04938      0.37239      0.13948  1.0000
  O2          0.33005      0.36703      0.36503  1.0000
  O2          0.04632      0.66768      0.03057  1.0000
  O2          0.62830      0.93903      0.69717  1.0000
  O2          0.68030      0.61518      0.86665  1.0000
  O2          0.95988      0.32686      0.52982  1.0000
  O2          0.37799      0.04218      0.19700  1.0000
  O2          0.77160      0.30054      0.01386  1.0000
  O2          0.69504      0.45876      0.34441  1.0000
  O2          0.53353      0.21343      0.67672  1.0000
  O2          0.23484      0.69351      0.51301  1.0000
  O2          0.31407      0.52172      0.84820  1.0000
  O2          0.47201      0.76816      0.17840  1.0000
  O2          0.30640      0.76521      0.32345  1.0000
  O2          0.47115      0.69151      0.99078  1.0000
  O2          0.23099      0.51781      0.65682  1.0000
  O2          0.69763      0.21558      0.82206  1.0000
  O2          0.53816      0.29573      0.48998  1.0000
  O2          0.77674      0.46586      0.15821  1.0000
  O2          0.78878      0.53208      0.02874  1.0000
  O2          0.46480      0.24183      0.36397  1.0000
  O2          0.74942      0.19739      0.69383  1.0000
  O2          0.22025      0.46198      0.52846  1.0000
  O2          0.53930      0.72921      0.86758  1.0000
  O2          0.25559      0.78321      0.19571  1.0000
  O2          0.53793      0.77850      0.30626  1.0000
  O2          0.26224      0.45990      0.97411  1.0000
  O2          0.21728      0.73624      0.64093  1.0000
  O2          0.46777      0.20401      0.80425  1.0000
  O2          0.75324      0.52645      0.47172  1.0000
  O2          0.78992      0.24950      0.14042  1.0000
  O2          0.24226      0.31610      0.90146  1.0000
  O2          0.68033      0.90477      0.23237  1.0000
  O2          0.09485      0.76064      0.56723  1.0000
  O2          0.76779      0.66825      0.39793  1.0000
  O2          0.32508      0.07629      0.73138  1.0000
  O2          0.91408      0.23052      0.06682  1.0000
  O2          0.32278      0.22461      0.43825  1.0000
  O2          0.91050      0.67356      0.10317  1.0000
  O2          0.77065      0.07747      0.76881  1.0000
  O2          0.68257      0.75183      0.93981  1.0000
  O2          0.09753      0.31325      0.60144  1.0000
  O2          0.23573      0.90560      0.26946  1.0000
  O3          0.60149      0.56477      0.00197  1.0000
  O2          0.44365      0.02393      0.32503  1.0000
  O2          0.97115      0.39540      0.65673  1.0000
  O2          0.41584      0.43513      0.49253  1.0000
  O2          0.56338      0.95616      0.82460  1.0000
  O2          0.03597      0.58841      0.15872  1.0000
  O2          0.55800      0.57976      0.34367  1.0000
  O2          0.03114      0.43761      0.01067  1.0000
  O2          0.41511      0.95530      0.67665  1.0000
  O2          0.45125      0.40403      0.84727  1.0000
  O2          0.97456      0.55524      0.51079  1.0000
  O2          0.59119      0.02688      0.17713  1.0000
  O2          0.58586      0.16210      0.25111  1.0000
  O2          0.83533      0.40954      0.58333  1.0000
  O3          0.60361      0.40172      0.91524  1.0000
  O2          0.41937      0.81890      0.75129  1.0000
  O2          0.17160      0.58053      0.08439  1.0000
  O2          0.41772      0.57600      0.41799  1.0000
  F           0.45654      0.90108      0.25152  1.0000
  F           0.09825      0.53885      0.58488  1.0000
  F           0.47773      0.51554      0.92872  1.0000
  F           0.54825      0.07847      0.75070  1.0000
  F           0.91594      0.45388      0.08559  1.0000
  F           0.54776      0.44321      0.41855  1.0000
