data_cif

_audit_creation_method             'generated by GULP'

_symmetry_space_group_name_H-M     'P 1'
_symmetry_Int_Tables_number        1
_symmetry_cell_setting             triclinic

_cell_length_a                       11.9471
_cell_length_b                       11.9872
_cell_length_c                       29.3164
_cell_angle_alpha                   89.7447
_cell_angle_beta                    90.9139
_cell_angle_gamma                  119.9489

loop_
_atom_site_label
_atom_site_fract_x
_atom_site_fract_y
_atom_site_fract_z
_atom_site_occupancy
  Si          0.69960      0.37570      0.03389  1.0000
  Si          0.62872      0.32402      0.36777  1.0000
  Si          0.69627      0.31549      0.69766  1.0000
  Si          0.31093      0.62001      0.53381  1.0000
  Si          0.37185      0.68311      0.86412  1.0000
  Si          0.32632      0.70258      0.20061  1.0000
  Si          0.38445      0.70199      0.30183  1.0000
  Si          0.31472      0.61703      0.96659  1.0000
  Si          0.31518      0.67230      0.63477  1.0000
  Si          0.63639      0.31054      0.80009  1.0000
  Si          0.68688      0.38007      0.46885  1.0000
  Si          0.70242      0.32161      0.13507  1.0000
  Si          0.52485      0.41020      0.96695  1.0000
  Si          0.58926      0.11340      0.30269  1.0000
  Si          0.91351      0.48134      0.63542  1.0000
  Si          0.48085      0.58245      0.46866  1.0000
  Si          0.42015      0.89942      0.79983  1.0000
  Si          0.11399      0.52825      0.13528  1.0000
  Si          0.42435      0.52890      0.36657  1.0000
  Si          0.10840      0.57813      0.03300  1.0000
  Si          0.47759      0.88761      0.69721  1.0000
  Si          0.58605      0.46998      0.86381  1.0000
  Si          0.90208      0.42190      0.53389  1.0000
  Si          0.53254      0.11241      0.20041  1.0000
  Ge          0.31193      0.41268      0.85719  1.0000
  Si          0.60320      0.90384      0.18631  1.0000
  Si          0.11234      0.70162      0.51982  1.0000
  Si          0.70449      0.60069      0.35266  1.0000
  Ge          0.42448      0.10674      0.69141  1.0000
  Si          0.89955      0.29806      0.01907  1.0000
  Si          0.40790      0.30143      0.48380  1.0000
  Si          0.90475      0.60005      0.14990  1.0000
  Si          0.70879      0.10425      0.81547  1.0000
  Si          0.59700      0.69473      0.98266  1.0000
  Si          0.11356      0.39677      0.65004  1.0000
  Si          0.30842      0.90379      0.31681  1.0000
  Si          0.24026      0.32938      0.95332  1.0000
  Si          0.66560      0.91149      0.28734  1.0000
  Si          0.11501      0.75899      0.62099  1.0000
  Si          0.75988      0.66111      0.45371  1.0000
  Si          0.34382      0.10570      0.78717  1.0000
  Si          0.91179      0.24929      0.12031  1.0000
  Si          0.34796      0.25138      0.38221  1.0000
  Si          0.90794      0.65565      0.04867  1.0000
  Si          0.76096      0.09522      0.71360  1.0000
  Si          0.65785      0.75033      0.88082  1.0000
  Si          0.10143      0.34049      0.54854  1.0000
  Si          0.25476      0.91086      0.21550  1.0000
  Si          0.96584      0.11667      0.97043  1.0000
  Si          0.88343      0.84803      0.30235  1.0000
  Si          0.17187      0.03818      0.63733  1.0000
  Si          0.04059      0.87975      0.46914  1.0000
  Si          0.12625      0.16206      0.80496  1.0000
  Si          0.84924      0.96952      0.13594  1.0000
  Si          0.12998      0.97170      0.36774  1.0000
  Si          0.84508      0.87285      0.03494  1.0000
  Si          0.03994      0.14853      0.70136  1.0000
  Si          0.88209      0.02893      0.86782  1.0000
  Si          0.16164      0.12229      0.53509  1.0000
  Si          0.97372      0.84798      0.20102  1.0000
  O2          0.92160      0.99416      0.00259  1.0000
  O2          0.00658      0.92837      0.33493  1.0000
  O2          0.07837      0.06624      0.66906  1.0000
  O2          0.08200      0.00064      0.50191  1.0000
  O2          0.00234      0.06907      0.83588  1.0000
  O2          0.93030      0.92812      0.16869  1.0000
  O2          0.34662      0.57843      0.33402  1.0000
  O2          0.43840      0.75660      0.66866  1.0000
  O2          0.23213      0.65480      0.00001  1.0000
  O2          0.67656      0.43131      0.83440  1.0000
  O2          0.58061      0.23772      0.16779  1.0000
  O2          0.77403      0.34383      0.50179  1.0000
  O2          0.57574      0.33687      0.00042  1.0000
  O2          0.79344      0.44122      0.66916  1.0000
  O2          0.66669      0.23891      0.33515  1.0000
  O2          0.43288      0.65913      0.50090  1.0000
  O2          0.24124      0.57880      0.16767  1.0000
  O2          0.34399      0.78107      0.83476  1.0000
  O2          0.11919      0.20974      0.97893  1.0000
  O2          0.79286      0.91178      0.30753  1.0000
  O2          0.11747      0.88375      0.64221  1.0000
  O2          0.88629      0.78768      0.47393  1.0000
  O2          0.22882      0.11139      0.81374  1.0000
  O2          0.91363      0.12391      0.14047  1.0000
  O2          0.22066      0.12528      0.36180  1.0000
  O2          0.90792      0.78221      0.02867  1.0000
  O2          0.88558      0.09314      0.69433  1.0000
  O2          0.78463      0.87544      0.86185  1.0000
  O2          0.09915      0.21396      0.52794  1.0000
  O2          0.12763      0.91119      0.19523  1.0000
  O2          0.93523      0.86063      0.25164  1.0000
  O2          0.14719      0.07060      0.58580  1.0000
  O2          0.93002      0.06258      0.91959  1.0000
  O2          0.07094      0.13271      0.75327  1.0000
  O2          0.85911      0.92549      0.08556  1.0000
  O2          0.07898      0.93305      0.41839  1.0000
  O2          0.89411      0.19767      0.98080  1.0000
  O2          0.80139      0.69681      0.31403  1.0000
  O3          0.31886      0.11428      0.64895  1.0000
  O2          0.11144      0.79844      0.48095  1.0000
  O3          0.19486      0.30926      0.81571  1.0000
  O2          0.69815      0.90174      0.14760  1.0000
  O2          0.21196      0.90226      0.35543  1.0000
  O2          0.69231      0.78902      0.02230  1.0000
  O2          0.11371      0.30017      0.68886  1.0000
  O2          0.80148      0.10095      0.85547  1.0000
  O2          0.31331      0.20439      0.52240  1.0000
  O2          0.90419      0.69663      0.18836  1.0000
  O2          0.32696      0.64526      0.25100  1.0000
  O2          0.37211      0.67530      0.58433  1.0000
  O2          0.31616      0.67337      0.91601  1.0000
  O2          0.69014      0.36370      0.74968  1.0000
  O2          0.64315      0.31943      0.08424  1.0000
  O2          0.68710      0.32346      0.41830  1.0000
  O2          0.36908      0.32433      0.96957  1.0000
  O2          0.67669      0.04426      0.30547  1.0000
  O2          0.98182      0.63638      0.63807  1.0000
  O2          0.63729      0.67070      0.47155  1.0000
  O2          0.33555      0.96990      0.80186  1.0000
  O2          0.04545      0.37231      0.13820  1.0000
  O2          0.33673      0.37290      0.36320  1.0000
  O2          0.03898      0.66510      0.02954  1.0000
  O2          0.63537      0.96362      0.69694  1.0000
  O2          0.66614      0.62708      0.86370  1.0000
  O2          0.96931      0.33323      0.53007  1.0000
  O2          0.37588      0.04321      0.19687  1.0000
  O2          0.76626      0.30031      0.01108  1.0000
  O2          0.70343      0.46639      0.34481  1.0000
  O3          0.55903      0.25475      0.67339  1.0000
  O2          0.24343      0.69671      0.51140  1.0000
  O3          0.29702      0.54754      0.83962  1.0000
  O2          0.46868      0.77048      0.17794  1.0000
  O2          0.30978      0.77043      0.32386  1.0000
  O2          0.46103      0.69096      0.98738  1.0000
  O2          0.24943      0.52951      0.65703  1.0000
  O2          0.71057      0.23868      0.82060  1.0000
  O2          0.54389      0.30380      0.49081  1.0000
  O2          0.77140      0.46557      0.15693  1.0000
  O2          0.77886      0.53171      0.02898  1.0000
  O2          0.47216      0.24897      0.36247  1.0000
  O2          0.75825      0.22074      0.69581  1.0000
  O2          0.22823      0.46428      0.52876  1.0000
  O2          0.52938      0.74847      0.86270  1.0000
  O2          0.25121      0.78381      0.19546  1.0000
  O2          0.54074      0.78561      0.30675  1.0000
  O2          0.24861      0.46254      0.97046  1.0000
  O2          0.23677      0.74942      0.64044  1.0000
  O2          0.48182      0.22476      0.80484  1.0000
  O2          0.76047      0.53580      0.47346  1.0000
  O2          0.78664      0.24966      0.13987  1.0000
  O3          0.21036      0.30408      0.90061  1.0000
  O2          0.68073      0.90871      0.23270  1.0000
  O2          0.11518      0.77572      0.56614  1.0000
  O2          0.77718      0.67690      0.39904  1.0000
  O3          0.31936      0.10913      0.73419  1.0000
  O2          0.90627      0.22886      0.06574  1.0000
  O2          0.33254      0.23243      0.43673  1.0000
  O2          0.90847      0.67421      0.10317  1.0000
  O2          0.77294      0.09705      0.76866  1.0000
  O2          0.66729      0.76078      0.93576  1.0000
  O2          0.10471      0.32198      0.60310  1.0000
  O2          0.23708      0.90873      0.27002  1.0000
  O2          0.57553      0.55233      0.98798  1.0000
  O2          0.44871      0.02838      0.32551  1.0000
  O2          0.99232      0.41767      0.65889  1.0000
  O2          0.42478      0.44194      0.49190  1.0000
  O2          0.56435      0.98669      0.82105  1.0000
  O2          0.02986      0.58457      0.15839  1.0000
  O2          0.56476      0.58708      0.34311  1.0000
  O2          0.02553      0.43659      0.00972  1.0000
  O3          0.41789      0.96344      0.67161  1.0000
  O3          0.45058      0.40975      0.83764  1.0000
  O2          0.98453      0.56337      0.51114  1.0000
  O2          0.59030      0.02975      0.17693  1.0000
  O2          0.58713      0.16583      0.25150  1.0000
  O2          0.85287      0.42354      0.58513  1.0000
  O2          0.57750      0.41542      0.91592  1.0000
  O2          0.42372      0.84597      0.74954  1.0000
  O2          0.16458      0.58020      0.08402  1.0000
  O2          0.42547      0.58191      0.41753  1.0000
  F           0.45654      0.90440      0.25001  1.0000
  F           0.11393      0.54922      0.58425  1.0000
  F           0.42010      0.51759      0.90579  1.0000
  F           0.53010      0.10443      0.73966  1.0000
  F           0.90258      0.45005      0.08286  1.0000
  F           0.55722      0.45242      0.41662  1.0000
