data_cif

_audit_creation_method             'generated by GULP'

_symmetry_space_group_name_H-M     'P 1'
_symmetry_Int_Tables_number        1
_symmetry_cell_setting             triclinic

_cell_length_a                       11.9725
_cell_length_b                       11.9666
_cell_length_c                       29.3812
_cell_angle_alpha                   89.9964
_cell_angle_beta                    90.2911
_cell_angle_gamma                  120.0776

loop_
_atom_site_label
_atom_site_fract_x
_atom_site_fract_y
_atom_site_fract_z
_atom_site_occupancy
  Si          0.69960      0.37570      0.03389  1.0000
  Si          0.61560      0.32436      0.36713  1.0000
  Si          0.67505      0.29578      0.69922  1.0000
  Si          0.29558      0.62076      0.53539  1.0000
  Si          0.36821      0.67957      0.86681  1.0000
  Si          0.31692      0.69990      0.20223  1.0000
  Si          0.37423      0.70319      0.30314  1.0000
  Si          0.31202      0.61594      0.96907  1.0000
  Si          0.29254      0.67362      0.63627  1.0000
  Si          0.62764      0.30173      0.80009  1.0000
  Si          0.67353      0.37801      0.46802  1.0000
  Si          0.69547      0.31946      0.13471  1.0000
  Si          0.52297      0.40307      0.96638  1.0000
  Si          0.57792      0.11416      0.30189  1.0000
  Si          0.88406      0.46747      0.63425  1.0000
  Si          0.46762      0.58312      0.47044  1.0000
  Si          0.41769      0.89683      0.80327  1.0000
  Si          0.10619      0.52640      0.13717  1.0000
  Si          0.41257      0.53126      0.36845  1.0000
  Si          0.10773      0.58027      0.03526  1.0000
  Si          0.46408      0.88556      0.70173  1.0000
  Si          0.58237      0.46718      0.86339  1.0000
  Si          0.88568      0.41593      0.53245  1.0000
  Si          0.52284      0.11023      0.19989  1.0000
  Ge          0.30369      0.40540      0.85544  1.0000
  Si          0.59413      0.90099      0.18680  1.0000
  Si          0.09461      0.69712      0.51922  1.0000
  Si          0.69242      0.60273      0.35341  1.0000
  Si          0.39473      0.09640      0.68661  1.0000
  Si          0.90042      0.29855      0.01973  1.0000
  Si          0.39613      0.30175      0.48377  1.0000
  Si          0.89676      0.59759      0.15103  1.0000
  Si          0.70118      0.09939      0.81594  1.0000
  Si          0.59254      0.68823      0.98352  1.0000
  Si          0.09167      0.39417      0.65016  1.0000
  Si          0.29740      0.90492      0.31684  1.0000
  Ge          0.23944      0.32747      0.95295  1.0000
  Si          0.65521      0.91243      0.28764  1.0000
  Si          0.08478      0.74677      0.62008  1.0000
  Si          0.74576      0.65976      0.45436  1.0000
  Si          0.34188      0.09901      0.78768  1.0000
  Si          0.90495      0.24727      0.12084  1.0000
  Si          0.33533      0.25232      0.38280  1.0000
  Si          0.90592      0.65631      0.05025  1.0000
  Si          0.74497      0.08564      0.71495  1.0000
  Si          0.65546      0.74774      0.88216  1.0000
  Si          0.08677      0.33902      0.54892  1.0000
  Si          0.24459      0.90887      0.21581  1.0000
  Si          0.96096      0.11199      0.97025  1.0000
  Si          0.87283      0.85008      0.30246  1.0000
  Si          0.14609      0.02650      0.63528  1.0000
  Si          0.02649      0.87737      0.46882  1.0000
  Si          0.11998      0.15691      0.80227  1.0000
  Si          0.84081      0.96666      0.13625  1.0000
  Si          0.11732      0.97210      0.36770  1.0000
  Si          0.83715      0.86819      0.03560  1.0000
  Si          0.02328      0.14542      0.70088  1.0000
  Si          0.87815      0.02861      0.86727  1.0000
  Si          0.14879      0.12128      0.53411  1.0000
  Si          0.96405      0.84591      0.20141  1.0000
  O2          0.90287      0.98480      0.00089  1.0000
  O2          0.99552      0.93035      0.33486  1.0000
  O2          0.06510      0.06711      0.66745  1.0000
  O2          0.06921      0.99984      0.50115  1.0000
  O2          0.99857      0.06681      0.83488  1.0000
  O2          0.92139      0.92475      0.16851  1.0000
  O2          0.33571      0.58105      0.33629  1.0000
  O2          0.41387      0.75813      0.67003  1.0000
  O2          0.23297      0.65899      0.00296  1.0000
  O2          0.66950      0.42668      0.83275  1.0000
  O2          0.57140      0.23456      0.16682  1.0000
  O2          0.75987      0.33907      0.49975  1.0000
  O2          0.58002      0.33507      0.99922  1.0000
  O2          0.75754      0.41760      0.66592  1.0000
  O2          0.65441      0.24089      0.33393  1.0000
  O2          0.41984      0.65967      0.50329  1.0000
  O2          0.23141      0.57500      0.16999  1.0000
  O2          0.33971      0.77711      0.83786  1.0000
  O3          0.11089      0.19513      0.98015  1.0000
  O2          0.78277      0.91434      0.30763  1.0000
  O2          0.08334      0.87215      0.64024  1.0000
  O2          0.87248      0.78588      0.47465  1.0000
  O2          0.21942      0.10184      0.80882  1.0000
  O2          0.90491      0.12121      0.14127  1.0000
  O2          0.20771      0.12652      0.36267  1.0000
  O2          0.90700      0.78348      0.03037  1.0000
  O2          0.86897      0.08284      0.69438  1.0000
  O2          0.78030      0.87398      0.86245  1.0000
  O2          0.08654      0.21295      0.52844  1.0000
  O2          0.11804      0.90873      0.19563  1.0000
  O2          0.92519      0.86130      0.25184  1.0000
  O2          0.13436      0.06726      0.58456  1.0000
  O2          0.92734      0.06426      0.91859  1.0000
  O2          0.06108      0.12827      0.75129  1.0000
  O2          0.85160      0.92528      0.08557  1.0000
  O2          0.06403      0.92998      0.41806  1.0000
  O2          0.89743      0.20148      0.98078  1.0000
  O2          0.78975      0.69884      0.31477  1.0000
  O2          0.29750      0.09643      0.64792  1.0000
  O2          0.09680      0.79580      0.48067  1.0000
  O3          0.19436      0.30527      0.81159  1.0000
  O2          0.68956      0.89773      0.14834  1.0000
  O2          0.20013      0.90375      0.35531  1.0000
  O2          0.68491      0.77677      0.02447  1.0000
  O2          0.09245      0.29761      0.68877  1.0000
  O2          0.79916      0.10106      0.85466  1.0000
  O2          0.30064      0.20331      0.52229  1.0000
  O2          0.89443      0.69367      0.18964  1.0000
  O2          0.31702      0.64403      0.25280  1.0000
  O2          0.35199      0.67644      0.58611  1.0000
  O2          0.31128      0.66955      0.91831  1.0000
  O2          0.68097      0.35685      0.74939  1.0000
  O2          0.63917      0.31892      0.08395  1.0000
  O2          0.67297      0.32229      0.41733  1.0000
  O3          0.37077      0.31172      0.96998  1.0000
  O2          0.66565      0.04571      0.30531  1.0000
  O2          0.95200      0.62369      0.63770  1.0000
  O2          0.62415      0.67019      0.47308  1.0000
  O2          0.33176      0.96640      0.80601  1.0000
  O2          0.03702      0.36994      0.13975  1.0000
  O2          0.32475      0.37489      0.36485  1.0000
  O2          0.03823      0.66702      0.03194  1.0000
  O2          0.62005      0.95284      0.69779  1.0000
  O2          0.66305      0.62456      0.86401  1.0000
  O2          0.95471      0.32875      0.52965  1.0000
  O2          0.36639      0.04095      0.19686  1.0000
  O2          0.76789      0.30079      0.01203  1.0000
  O2          0.69058      0.46806      0.34505  1.0000
  O2          0.53036      0.22764      0.67769  1.0000
  O2          0.22859      0.69663      0.51240  1.0000
  O3          0.29375      0.54399      0.84169  1.0000
  O2          0.45953      0.76691      0.17946  1.0000
  O2          0.29911      0.77194      0.32485  1.0000
  O2          0.45947      0.68962      0.98811  1.0000
  O2          0.22472      0.52961      0.65804  1.0000
  O2          0.70361      0.23473      0.82280  1.0000
  O2          0.53078      0.30244      0.49065  1.0000
  O2          0.76307      0.46254      0.15761  1.0000
  O2          0.77862      0.53238      0.02974  1.0000
  O2          0.45929      0.25030      0.36244  1.0000
  O2          0.74693      0.21184      0.69455  1.0000
  O2          0.21400      0.46460      0.52994  1.0000
  O2          0.52452      0.74154      0.86572  1.0000
  O2          0.24242      0.78140      0.19667  1.0000
  O2          0.53048      0.78657      0.30773  1.0000
  O3          0.24204      0.46321      0.97563  1.0000
  O2          0.21044      0.74753      0.64044  1.0000
  O2          0.47202      0.22289      0.80638  1.0000
  O2          0.74718      0.53409      0.47339  1.0000
  O2          0.77792      0.24592      0.13960  1.0000
  O1          0.20057      0.29670      0.89701  1.0000
  O2          0.67081      0.90787      0.23318  1.0000
  O2          0.08843      0.76686      0.56558  1.0000
  O2          0.76411      0.67753      0.39987  1.0000
  O2          0.32391      0.09850      0.73305  1.0000
  O2          0.90477      0.22862      0.06642  1.0000
  O2          0.31978      0.23216      0.43723  1.0000
  O2          0.90271      0.67350      0.10466  1.0000
  O2          0.76813      0.09076      0.76938  1.0000
  O2          0.66634      0.75578      0.93701  1.0000
  O2          0.08789      0.32081      0.60336  1.0000
  O2          0.22638      0.90827      0.27024  1.0000
  O2          0.56605      0.54380      0.98796  1.0000
  O2          0.43718      0.03066      0.32518  1.0000
  O2          0.96683      0.40952      0.65800  1.0000
  O2          0.41124      0.44145      0.49310  1.0000
  O2          0.56083      0.97604      0.82587  1.0000
  O2          0.02167      0.58291      0.16019  1.0000
  O2          0.55314      0.58956      0.34486  1.0000
  O2          0.02606      0.43878      0.01166  1.0000
  O2          0.40559      0.96874      0.67877  1.0000
  O3          0.44674      0.41063      0.83805  1.0000
  O2          0.96965      0.55746      0.50945  1.0000
  O2          0.58018      0.02608      0.17705  1.0000
  O2          0.57700      0.16546      0.25067  1.0000
  O2          0.83156      0.41501      0.58312  1.0000
  O2          0.57562      0.41187      0.91491  1.0000
  O2          0.41352      0.83634      0.75319  1.0000
  O2          0.16028      0.58035      0.08642  1.0000
  O2          0.41337      0.58361      0.41957  1.0000
  F           0.44643      0.90355      0.25121  1.0000
  F           0.09282      0.54650      0.58409  1.0000
  F           0.40677      0.50390      0.90967  1.0000
  F           0.54889      0.09774      0.75157  1.0000
  F           0.89838      0.45005      0.08484  1.0000
  F           0.54382      0.45238      0.41803  1.0000
