data_cif

_audit_creation_method             'generated by GULP'

_symmetry_space_group_name_H-M     'P 1'
_symmetry_Int_Tables_number        1
_symmetry_cell_setting             triclinic

_cell_length_a                       11.9541
_cell_length_b                       12.0097
_cell_length_c                       29.3105
_cell_angle_alpha                   90.2758
_cell_angle_beta                    89.8614
_cell_angle_gamma                  120.1538

loop_
_atom_site_label
_atom_site_fract_x
_atom_site_fract_y
_atom_site_fract_z
_atom_site_occupancy
  Si          0.69960      0.37570      0.03389  1.0000
  Si          0.64401      0.33545      0.36786  1.0000
  Si          0.69542      0.30562      0.70004  1.0000
  Si          0.31316      0.62824      0.53397  1.0000
  Si          0.37876      0.68408      0.86449  1.0000
  Si          0.31811      0.69968      0.20205  1.0000
  Si          0.37876      0.69320      0.30447  1.0000
  Si          0.31812      0.61697      0.96691  1.0000
  Si          0.31317      0.68344      0.63498  1.0000
  Si          0.64401      0.30709      0.80110  1.0000
  Si          0.69542      0.38832      0.46891  1.0000
  Si          0.69956      0.32243      0.13506  1.0000
  Si          0.52828      0.41066      0.96677  1.0000
  Si          0.59441      0.12199      0.30538  1.0000
  Si          0.90601      0.47885      0.63543  1.0000
  Si          0.48369      0.58655      0.46859  1.0000
  Si          0.43195      0.90334      0.80212  1.0000
  Si          0.10920      0.52901      0.13561  1.0000
  Si          0.43194      0.52713      0.36684  1.0000
  Si          0.10921      0.57875      0.03335  1.0000
  Si          0.48369      0.89565      0.70036  1.0000
  Si          0.59442      0.47096      0.86357  1.0000
  Si          0.90601      0.42566      0.53352  1.0000
  Si          0.52826      0.11614      0.20218  1.0000
  Ge          0.32049      0.41444      0.85737  1.0000
  Si          0.59980      0.90362      0.18673  1.0000
  Si          0.11328      0.70670      0.51867  1.0000
  Si          0.71536      0.60950      0.35302  1.0000
  Si          0.41494      0.10661      0.68617  1.0000
  Si          0.90037      0.29779      0.01880  1.0000
  Si          0.41494      0.30684      0.48278  1.0000
  Si          0.90034      0.60110      0.15016  1.0000
  Si          0.71536      0.10438      0.81594  1.0000
  Si          0.59982      0.69473      0.98222  1.0000
  Si          0.11328      0.40509      0.65029  1.0000
  Ge          0.32049      0.90458      0.31158  1.0000
  Si          0.24428      0.33005      0.95330  1.0000
  Si          0.66499      0.91225      0.28860  1.0000
  Si          0.10577      0.75739      0.62012  1.0000
  Si          0.76459      0.66764      0.45414  1.0000
  Si          0.35804      0.10622      0.78750  1.0000
  Si          0.90829      0.25021      0.12011  1.0000
  Si          0.35804      0.25034      0.38145  1.0000
  Si          0.90831      0.65664      0.04885  1.0000
  Si          0.76459      0.09546      0.71482  1.0000
  Si          0.66500      0.75128      0.88036  1.0000
  Si          0.10577      0.34689      0.54883  1.0000
  Si          0.24426      0.91275      0.21565  1.0000
  Si          0.96879      0.11706      0.96956  1.0000
  Si          0.88989      0.85747      0.30223  1.0000
  Si          0.16653      0.03653      0.63519  1.0000
  Si          0.04467      0.88583      0.46781  1.0000
  Si          0.13613      0.16438      0.80337  1.0000
  Si          0.84602      0.97122      0.13485  1.0000
  Si          0.13612      0.97027      0.36559  1.0000
  Si          0.84603      0.87336      0.03410  1.0000
  Si          0.04468      0.15735      0.70114  1.0000
  Si          0.88990      0.03096      0.86672  1.0000
  Si          0.16653      0.12850      0.53376  1.0000
  Si          0.96877      0.85026      0.19940  1.0000
  O2          0.92320      0.99364      0.00134  1.0000
  O2          0.01220      0.94060      0.33412  1.0000
  O2          0.08693      0.07804      0.66815  1.0000
  O2          0.08693      0.00740      0.50081  1.0000
  O2          0.01221      0.07014      0.83484  1.0000
  O2          0.92319      0.92810      0.16761  1.0000
  O2          0.35115      0.56740      0.33287  1.0000
  O2          0.43555      0.76958      0.66820  1.0000
  O2          0.23484      0.65514      0.00061  1.0000
  O2          0.68482      0.43063      0.83454  1.0000
  O2          0.57752      0.23863      0.16853  1.0000
  O2          0.77937      0.34897      0.50135  1.0000
  O2          0.57756      0.33746      0.00042  1.0000
  O2          0.77937      0.42891      0.66760  1.0000
  O2          0.68481      0.25271      0.33441  1.0000
  O2          0.43555      0.66449      0.50075  1.0000
  O2          0.23482      0.57823      0.16834  1.0000
  O2          0.35115      0.78228      0.83608  1.0000
  O2          0.12154      0.21035      0.97887  1.0000
  O2          0.79248      0.91415      0.30761  1.0000
  O2          0.10468      0.88276      0.64045  1.0000
  O2          0.89017      0.79417      0.47460  1.0000
  O2          0.23513      0.10901      0.80878  1.0000
  O2          0.90961      0.12506      0.14016  1.0000
  O2          0.23512      0.12465      0.36017  1.0000
  O2          0.90963      0.78311      0.02880  1.0000
  O2          0.89018      0.09452      0.69436  1.0000
  O2          0.79249      0.87687      0.86134  1.0000
  O2          0.10468      0.22043      0.52851  1.0000
  O2          0.12152      0.90971      0.19008  1.0000
  O2          0.93669      0.87057      0.25035  1.0000
  O2          0.15248      0.07550      0.58448  1.0000
  O2          0.93670      0.06468      0.91860  1.0000
  O2          0.08119      0.14196      0.75192  1.0000
  O2          0.85736      0.92796      0.08448  1.0000
  O2          0.08118      0.93775      0.41704  1.0000
  O2          0.89627      0.19740      0.98063  1.0000
  O2          0.81148      0.70622      0.31409  1.0000
  O2          0.31870      0.10702      0.64726  1.0000
  O2          0.11461      0.80411      0.48014  1.0000
  O3          0.20684      0.31051      0.81547  1.0000
  O2          0.69363      0.90365      0.14693  1.0000
  O3          0.20683      0.89485      0.35348  1.0000
  O2          0.69364      0.78853      0.02203  1.0000
  O2          0.11461      0.30901      0.68881  1.0000
  O2          0.81148      0.10380      0.85486  1.0000
  O2          0.31870      0.21019      0.52169  1.0000
  O2          0.89625      0.69741      0.18832  1.0000
  O2          0.32181      0.64636      0.25232  1.0000
  O2          0.37193      0.68522      0.58448  1.0000
  O2          0.32182      0.67399      0.91663  1.0000
  O2          0.69937      0.36440      0.75066  1.0000
  O2          0.64123      0.31989      0.08447  1.0000
  O2          0.69937      0.33349      0.41829  1.0000
  O2          0.37214      0.32508      0.96986  1.0000
  O2          0.67504      0.04532      0.30517  1.0000
  O2          0.97347      0.63464      0.63863  1.0000
  O2          0.64025      0.67515      0.47209  1.0000
  O2          0.34599      0.97270      0.80507  1.0000
  O2          0.04031      0.37316      0.13880  1.0000
  O2          0.34598      0.37180      0.36388  1.0000
  O2          0.04033      0.66571      0.03016  1.0000
  O2          0.64025      0.96361      0.69687  1.0000
  O2          0.67505      0.62826      0.86379  1.0000
  O2          0.97347      0.33734      0.53032  1.0000
  O2          0.37212      0.04559      0.19910  1.0000
  O2          0.76734      0.30018      0.01154  1.0000
  O2          0.71919      0.47796      0.34521  1.0000
  O2          0.55124      0.23792      0.67805  1.0000
  O2          0.24683      0.70471      0.51150  1.0000
  O3          0.30414      0.54787      0.84029  1.0000
  O2          0.46360      0.77190      0.18116  1.0000
  O3          0.30414      0.75480      0.32867  1.0000
  O2          0.46362      0.69025      0.98779  1.0000
  O2          0.24683      0.54063      0.65746  1.0000
  O2          0.71919      0.23976      0.82374  1.0000
  O2          0.55124      0.31183      0.49090  1.0000
  O2          0.76731      0.46569      0.15741  1.0000
  O2          0.78062      0.53167      0.02929  1.0000
  O2          0.48795      0.25807      0.36188  1.0000
  O2          0.76752      0.22213      0.69510  1.0000
  O2          0.23192      0.47233      0.52912  1.0000
  O2          0.53615      0.74680      0.86238  1.0000
  O2          0.25090      0.78705      0.19817  1.0000
  O2          0.53614      0.78788      0.30658  1.0000
  O2          0.25092      0.46240      0.97079  1.0000
  O2          0.23192      0.75810      0.63983  1.0000
  O2          0.48796      0.22841      0.80707  1.0000
  O2          0.76752      0.54390      0.47386  1.0000
  O2          0.78059      0.24749      0.13966  1.0000
  O3          0.21671      0.30451      0.90062  1.0000
  O2          0.67178      0.90848      0.23354  1.0000
  O2          0.10819      0.77608      0.56551  1.0000
  O2          0.78481      0.68596      0.39950  1.0000
  O2          0.34252      0.10763      0.73273  1.0000
  O2          0.90575      0.22966      0.06562  1.0000
  O2          0.34252      0.23341      0.43622  1.0000
  O2          0.90575      0.67464      0.10334  1.0000
  O2          0.78481      0.09737      0.76946  1.0000
  O2          0.67180      0.76185      0.93542  1.0000
  O2          0.10819      0.33062      0.60344  1.0000
  O3          0.21670      0.91074      0.26833  1.0000
  O2          0.57928      0.55301      0.98777  1.0000
  O3          0.45973      0.04581      0.33131  1.0000
  O2          0.98886      0.42120      0.65899  1.0000
  O2          0.42640      0.44510      0.49104  1.0000
  O2          0.57411      0.98147      0.82556  1.0000
  O2          0.02620      0.58739      0.15891  1.0000
  O2          0.57410      0.59116      0.34340  1.0000
  O2          0.02623      0.43737      0.01005  1.0000
  O2          0.42640      0.97982      0.67791  1.0000
  O3          0.45974      0.41246      0.83764  1.0000
  O2          0.98886      0.56617      0.50996  1.0000
  O2          0.57927      0.02481      0.18118  1.0000
  O2          0.58239      0.16523      0.25319  1.0000
  O2          0.85229      0.42540      0.58448  1.0000
  O2          0.58241      0.41571      0.91577  1.0000
  O2          0.43074      0.84510      0.75174  1.0000
  O2          0.16304      0.58079      0.08448  1.0000
  O2          0.43074      0.58416      0.41721  1.0000
  F           0.42564      0.90591      0.26258  1.0000
  F           0.11327      0.55589      0.58448  1.0000
  F           0.42565      0.51827      0.90637  1.0000
  F           0.56735      0.10618      0.75187  1.0000
  F           0.90111      0.44983      0.08448  1.0000
  F           0.56736      0.45969      0.41708  1.0000
