data_cif

_audit_creation_method             'generated by GULP'

_symmetry_space_group_name_H-M     'P 1'
_symmetry_Int_Tables_number        1
_symmetry_cell_setting             triclinic

_cell_length_a                       11.9542
_cell_length_b                       12.0142
_cell_length_c                       29.4151
_cell_angle_alpha                   90.2573
_cell_angle_beta                    90.6910
_cell_angle_gamma                  120.4163

loop_
_atom_site_label
_atom_site_fract_x
_atom_site_fract_y
_atom_site_fract_z
_atom_site_occupancy
  Si          0.69960      0.37570      0.03389  1.0000
  Si          0.61932      0.32223      0.36599  1.0000
  Si          0.67807      0.29600      0.70178  1.0000
  Si          0.29491      0.61874      0.53842  1.0000
  Si          0.36914      0.68239      0.86784  1.0000
  Si          0.32080      0.70525      0.20341  1.0000
  Si          0.38173      0.71610      0.30403  1.0000
  Si          0.31533      0.61575      0.96983  1.0000
  Si          0.29352      0.67308      0.63912  1.0000
  Si          0.63432      0.30556      0.80245  1.0000
  Si          0.67207      0.37389      0.46938  1.0000
  Si          0.69859      0.32204      0.13454  1.0000
  Si          0.52599      0.41000      0.96709  1.0000
  Si          0.59241      0.12150      0.30095  1.0000
  Si          0.88454      0.46561      0.63624  1.0000
  Si          0.46504      0.58131      0.47306  1.0000
  Si          0.41997      0.90073      0.80604  1.0000
  Si          0.10899      0.52847      0.13794  1.0000
  Si          0.40558      0.53460      0.36887  1.0000
  Si          0.10906      0.57839      0.03609  1.0000
  Si          0.46513      0.88697      0.70476  1.0000
  Si          0.58628      0.47035      0.86432  1.0000
  Si          0.88673      0.41513      0.53461  1.0000
  Si          0.53003      0.11388      0.19956  1.0000
  Ge          0.31175      0.41347      0.85941  1.0000
  Si          0.59870      0.90393      0.18688  1.0000
  Si          0.09519      0.69653      0.52187  1.0000
  Si          0.69022      0.60363      0.35354  1.0000
  Si          0.39577      0.09634      0.68931  1.0000
  Si          0.89918      0.29707      0.02072  1.0000
  Si          0.39128      0.29564      0.48851  1.0000
  Si          0.90042      0.60111      0.15103  1.0000
  Si          0.70604      0.10344      0.81893  1.0000
  Si          0.59875      0.69443      0.98404  1.0000
  Si          0.09287      0.39297      0.65244  1.0000
  Si          0.30860      0.91943      0.31850  1.0000
  Si          0.24046      0.32847      0.95480  1.0000
  Si          0.66528      0.91823      0.28734  1.0000
  Si          0.08512      0.74578      0.62275  1.0000
  Si          0.74629      0.66078      0.45604  1.0000
  Si          0.34587      0.10301      0.79021  1.0000
  Si          0.90699      0.24831      0.12171  1.0000
  Ge          0.35346      0.27121      0.38813  1.0000
  Si          0.90912      0.65682      0.05016  1.0000
  Si          0.74763      0.08739      0.71811  1.0000
  Si          0.65683      0.75036      0.88245  1.0000
  Si          0.08638      0.33665      0.55114  1.0000
  Si          0.25090      0.91504      0.21719  1.0000
  Si          0.96562      0.11529      0.97211  1.0000
  Si          0.87920      0.85160      0.30426  1.0000
  Si          0.14414      0.02409      0.63867  1.0000
  Si          0.03168      0.87825      0.47053  1.0000
  Si          0.12494      0.16167      0.80603  1.0000
  Si          0.84546      0.96898      0.13759  1.0000
  Si          0.12736      0.98389      0.37067  1.0000
  Si          0.84711      0.87329      0.03692  1.0000
  Si          0.02621      0.14693      0.70419  1.0000
  Si          0.88173      0.03007      0.86944  1.0000
  Si          0.14763      0.11919      0.53826  1.0000
  Si          0.96841      0.84882      0.20290  1.0000
  O2          0.92254      0.99456      0.00471  1.0000
  O2          0.99996      0.92620      0.33791  1.0000
  O2          0.06584      0.06502      0.67182  1.0000
  O2          0.07296      0.99877      0.50398  1.0000
  O2          0.00294      0.06881      0.83774  1.0000
  O2          0.92463      0.92962      0.17172  1.0000
  O2          0.33910      0.59769      0.33859  1.0000
  O2          0.41522      0.75881      0.67319  1.0000
  O2          0.23484      0.65432      0.00394  1.0000
  O2          0.67627      0.43134      0.83492  1.0000
  O2          0.57498      0.23665      0.16645  1.0000
  O2          0.76080      0.33875      0.50101  1.0000
  O2          0.57712      0.33671      0.99981  1.0000
  O2          0.75873      0.41597      0.66792  1.0000
  O2          0.67194      0.24964      0.33304  1.0000
  O2          0.41932      0.65772      0.50642  1.0000
  O2          0.23430      0.57896      0.17134  1.0000
  O2          0.34059      0.78137      0.84026  1.0000
  O2          0.11973      0.20858      0.98045  1.0000
  O2          0.79214      0.91913      0.30783  1.0000
  O2          0.08249      0.86989      0.64326  1.0000
  O2          0.87573      0.78492      0.47591  1.0000
  O2          0.22467      0.10715      0.81150  1.0000
  O2          0.90827      0.12356      0.14201  1.0000
  O3          0.20693      0.13324      0.36660  1.0000
  O2          0.91107      0.78398      0.03049  1.0000
  O2          0.87114      0.08386      0.69766  1.0000
  O2          0.78242      0.87627      0.86293  1.0000
  O2          0.08441      0.20955      0.53110  1.0000
  O2          0.12287      0.91296      0.19692  1.0000
  O2          0.93119      0.85845      0.25398  1.0000
  O2          0.12596      0.06240      0.58835  1.0000
  O2          0.92920      0.06039      0.92139  1.0000
  O2          0.06660      0.13562      0.75477  1.0000
  O2          0.86037      0.92530      0.08772  1.0000
  O2          0.06988      0.92815      0.42014  1.0000
  O2          0.89457      0.19651      0.98263  1.0000
  O2          0.78814      0.70020      0.31595  1.0000
  O2          0.29722      0.09472      0.65042  1.0000
  O2          0.09902      0.79489      0.48342  1.0000
  O3          0.19634      0.30871      0.81726  1.0000
  O2          0.69282      0.89955      0.14817  1.0000
  O2          0.21716      0.92219      0.35769  1.0000
  O2          0.69418      0.78793      0.02404  1.0000
  O2          0.09550      0.29785      0.69075  1.0000
  O2          0.80465      0.10480      0.85766  1.0000
  O2          0.30225      0.20645      0.53023  1.0000
  O2          0.89793      0.69748      0.18930  1.0000
  O2          0.32311      0.65198      0.25401  1.0000
  O2          0.35276      0.67599      0.58907  1.0000
  O2          0.31543      0.67217      0.91986  1.0000
  O2          0.68653      0.35930      0.75176  1.0000
  O2          0.64051      0.31922      0.08375  1.0000
  O2          0.66943      0.32169      0.41817  1.0000
  O2          0.36965      0.32372      0.97019  1.0000
  O2          0.68047      0.05398      0.30408  1.0000
  O2          0.95186      0.62159      0.63940  1.0000
  O2          0.62269      0.66654      0.47471  1.0000
  O2          0.33458      0.97041      0.80828  1.0000
  O2          0.04032      0.37234      0.14032  1.0000
  O3          0.31442      0.38286      0.36356  1.0000
  O2          0.04101      0.66592      0.03205  1.0000
  O2          0.62156      0.95445      0.70068  1.0000
  O2          0.66646      0.62800      0.86499  1.0000
  O2          0.95481      0.32776      0.53116  1.0000
  O2          0.37283      0.04435      0.19700  1.0000
  O2          0.76669      0.29991      0.01189  1.0000
  O2          0.68933      0.46974      0.34737  1.0000
  O2          0.53216      0.22694      0.68015  1.0000
  O2          0.22813      0.69383      0.51507  1.0000
  O3          0.29306      0.54614      0.84308  1.0000
  O2          0.46212      0.77056      0.17964  1.0000
  O2          0.30778      0.78540      0.32519  1.0000
  O2          0.46278      0.68974      0.98996  1.0000
  O2          0.22648      0.52922      0.66026  1.0000
  O2          0.71092      0.23973      0.82533  1.0000
  O2          0.52977      0.30003      0.49198  1.0000
  O2          0.76587      0.46587      0.15707  1.0000
  O2          0.78048      0.53219      0.02965  1.0000
  O3          0.46565      0.24227      0.35901  1.0000
  O2          0.75079      0.21326      0.69744  1.0000
  O2          0.21457      0.46235      0.53257  1.0000
  O2          0.52669      0.74564      0.86512  1.0000
  O2          0.24532      0.78552      0.19871  1.0000
  O2          0.53927      0.79544      0.30838  1.0000
  O2          0.24880      0.46097      0.97286  1.0000
  O2          0.21050      0.74555      0.64328  1.0000
  O2          0.47831      0.22646      0.80869  1.0000
  O2          0.73710      0.52901      0.47224  1.0000
  O2          0.78117      0.24918      0.14027  1.0000
  O3          0.20935      0.30306      0.90221  1.0000
  O2          0.67783      0.91033      0.23290  1.0000
  O2          0.09033      0.76642      0.56836  1.0000
  O2          0.75392      0.67238      0.40174  1.0000
  O2          0.32632      0.10057      0.73558  1.0000
  O2          0.90324      0.22784      0.06730  1.0000
  O3          0.30749      0.21812      0.44500  1.0000
  O2          0.90711      0.67533      0.10447  1.0000
  O2          0.77171      0.09318      0.77250  1.0000
  O2          0.66792      0.76165      0.93730  1.0000
  O2          0.08754      0.31945      0.60550  1.0000
  O2          0.23758      0.92168      0.27148  1.0000
  O2          0.57811      0.55245      0.98852  1.0000
  O2          0.45349      0.04020      0.32526  1.0000
  O2          0.96841      0.40902      0.65990  1.0000
  O2          0.41359      0.44007      0.49444  1.0000
  O2          0.56417      0.98163      0.82881  1.0000
  O2          0.02466      0.58533      0.16044  1.0000
  O2          0.54821      0.58479      0.34673  1.0000
  O2          0.02650      0.43636      0.01249  1.0000
  O2          0.40516      0.96819      0.68161  1.0000
  O3          0.44970      0.41135      0.83879  1.0000
  O2          0.96765      0.55704      0.51198  1.0000
  O2          0.58684      0.02959      0.17679  1.0000
  O2          0.58845      0.17156      0.24998  1.0000
  O2          0.83099      0.41191      0.58497  1.0000
  O2          0.57719      0.41514      0.91604  1.0000
  O2          0.41536      0.83921      0.75608  1.0000
  O2          0.16298      0.58120      0.08729  1.0000
  O2          0.41283      0.58127      0.42194  1.0000
  F           0.45686      0.91009      0.25083  1.0000
  F           0.09264      0.54435      0.58554  1.0000
  F           0.41997      0.51742      0.90792  1.0000
  F           0.55303      0.10067      0.75375  1.0000
  F           0.90029      0.45021      0.08460  1.0000
  F           0.50412      0.41681      0.41473  1.0000
