data_cif

_audit_creation_method             'generated by GULP'

_symmetry_space_group_name_H-M     'P 1'
_symmetry_Int_Tables_number        1
_symmetry_cell_setting             triclinic

_cell_length_a                       11.9220
_cell_length_b                       12.0144
_cell_length_c                       29.4141
_cell_angle_alpha                   90.0266
_cell_angle_beta                    90.8072
_cell_angle_gamma                  120.1467

loop_
_atom_site_label
_atom_site_fract_x
_atom_site_fract_y
_atom_site_fract_z
_atom_site_occupancy
  Si          0.69960      0.37570      0.03389  1.0000
  Si          0.61101      0.33452      0.36912  1.0000
  Si          0.67876      0.30123      0.70136  1.0000
  Si          0.29471      0.62524      0.53857  1.0000
  Si          0.36945      0.68508      0.86749  1.0000
  Si          0.32136      0.70020      0.20387  1.0000
  Si          0.37365      0.70184      0.30727  1.0000
  Si          0.31586      0.61691      0.96944  1.0000
  Si          0.29335      0.67868      0.63914  1.0000
  Si          0.63450      0.30871      0.80208  1.0000
  Si          0.67268      0.38502      0.46968  1.0000
  Si          0.69836      0.32104      0.13466  1.0000
  Si          0.52712      0.41203      0.96669  1.0000
  Si          0.58760      0.12842      0.30443  1.0000
  Si          0.88513      0.47286      0.63622  1.0000
  Si          0.46342      0.58497      0.47373  1.0000
  Si          0.42056      0.90411      0.80575  1.0000
  Si          0.10796      0.52684      0.13797  1.0000
  Si          0.40103      0.52895      0.37232  1.0000
  Si          0.10973      0.57752      0.03616  1.0000
  Si          0.46603      0.89153      0.70444  1.0000
  Si          0.58697      0.47341      0.86392  1.0000
  Si          0.88568      0.42149      0.53455  1.0000
  Si          0.52839      0.11448      0.20025  1.0000
  Ge          0.31157      0.41610      0.85877  1.0000
  Si          0.60195      0.90283      0.18503  1.0000
  Si          0.09397      0.70249      0.52195  1.0000
  Si          0.68412      0.61043      0.35478  1.0000
  Si          0.39659      0.10159      0.68889  1.0000
  Si          0.90016      0.29678      0.02073  1.0000
  Si          0.39437      0.30558      0.48654  1.0000
  Si          0.89916      0.59959      0.15115  1.0000
  Si          0.70575      0.10612      0.81837  1.0000
  Si          0.59977      0.69577      0.98358  1.0000
  Si          0.09360      0.39972      0.65242  1.0000
  Si          0.30264      0.91245      0.31981  1.0000
  Si          0.24143      0.33062      0.95427  1.0000
  Ge          0.64026      0.91707      0.28530  1.0000
  Si          0.08483      0.75198      0.62276  1.0000
  Si          0.74268      0.66516      0.45600  1.0000
  Si          0.34682      0.10700      0.78982  1.0000
  Si          0.90734      0.24767      0.12185  1.0000
  Si          0.32830      0.25313      0.38591  1.0000
  Si          0.90889      0.65610      0.05023  1.0000
  Si          0.74830      0.09175      0.71766  1.0000
  Si          0.65779      0.75298      0.88201  1.0000
  Si          0.08674      0.34339      0.55124  1.0000
  Si          0.24718      0.91275      0.21728  1.0000
  Si          0.96737      0.11656      0.97115  1.0000
  Si          0.86603      0.85574      0.30284  1.0000
  Si          0.14600      0.03092      0.63733  1.0000
  Si          0.02553      0.88155      0.47066  1.0000
  Si          0.12532      0.16534      0.80520  1.0000
  Si          0.84556      0.96874      0.13565  1.0000
  Si          0.11411      0.97234      0.36925  1.0000
  Si          0.84910      0.87415      0.03555  1.0000
  Si          0.02767      0.15287      0.70327  1.0000
  Si          0.88223      0.03245      0.86858  1.0000
  Si          0.14774      0.12525      0.53629  1.0000
  Si          0.96222      0.84499      0.20304  1.0000
  O2          0.92456      0.99347      0.00259  1.0000
  O2          0.99327      0.92557      0.33554  1.0000
  O2          0.06758      0.07355      0.66978  1.0000
  O2          0.06901      0.00564      0.50223  1.0000
  O2          0.00262      0.07131      0.83644  1.0000
  O2          0.92078      0.92444      0.16991  1.0000
  O2          0.32135      0.57706      0.34012  1.0000
  O2          0.41564      0.76378      0.67307  1.0000
  O2          0.23506      0.65427      0.00400  1.0000
  O2          0.67675      0.43409      0.83458  1.0000
  O2          0.57432      0.23627      0.16669  1.0000
  O2          0.75985      0.34586      0.50121  1.0000
  O2          0.57787      0.33792      0.99960  1.0000
  O2          0.75884      0.42192      0.66789  1.0000
  O2          0.65396      0.25852      0.33446  1.0000
  O2          0.41877      0.66320      0.50672  1.0000
  O2          0.23331      0.57654      0.17164  1.0000
  O2          0.34102      0.78463      0.84000  1.0000
  O2          0.12106      0.21040      0.97991  1.0000
  O3          0.78706      0.92627      0.30641  1.0000
  O2          0.08304      0.87708      0.64267  1.0000
  O2          0.87084      0.79114      0.47629  1.0000
  O2          0.22581      0.11154      0.81131  1.0000
  O2          0.90955      0.12297      0.14187  1.0000
  O2          0.20137      0.12681      0.36527  1.0000
  O2          0.91168      0.78307      0.02994  1.0000
  O2          0.87228      0.08886      0.69718  1.0000
  O2          0.78350      0.87874      0.86273  1.0000
  O2          0.08568      0.21722      0.53087  1.0000
  O2          0.11794      0.90732      0.19729  1.0000
  O2          0.92391      0.85642      0.25336  1.0000
  O2          0.13164      0.06935      0.58647  1.0000
  O2          0.93184      0.06442      0.92028  1.0000
  O2          0.06911      0.13980      0.75367  1.0000
  O2          0.86604      0.93001      0.08581  1.0000
  O2          0.06253      0.92868      0.41952  1.0000
  O2          0.89509      0.19643      0.98273  1.0000
  O2          0.77547      0.70441      0.31547  1.0000
  O2          0.29860      0.10065      0.64983  1.0000
  O2          0.09612      0.80090      0.48361  1.0000
  O3          0.19545      0.31180      0.81691  1.0000
  O2          0.69113      0.90212      0.14328  1.0000
  O2          0.20464      0.91136      0.35727  1.0000
  O2          0.69567      0.78917      0.02341  1.0000
  O2          0.09577      0.30399      0.69082  1.0000
  O2          0.80414      0.10666      0.85724  1.0000
  O2          0.30050      0.20780      0.52529  1.0000
  O2          0.89493      0.69419      0.18954  1.0000
  O2          0.32374      0.65057      0.25492  1.0000
  O2          0.35284      0.68154      0.58924  1.0000
  O2          0.31556      0.67426      0.91962  1.0000
  O2          0.68679      0.36300      0.75151  1.0000
  O2          0.64061      0.31950      0.08388  1.0000
  O2          0.67005      0.32939      0.41891  1.0000
  O2          0.37093      0.32603      0.96994  1.0000
  O3          0.67885      0.06806      0.30955  1.0000
  O2          0.95208      0.62849      0.64001  1.0000
  O2          0.62066      0.67274      0.47589  1.0000
  O2          0.33527      0.97432      0.80809  1.0000
  O2          0.03941      0.37129      0.14118  1.0000
  O2          0.31289      0.37318      0.36889  1.0000
  O2          0.04128      0.66499      0.03271  1.0000
  O2          0.62259      0.95905      0.70044  1.0000
  O2          0.66737      0.63061      0.86468  1.0000
  O2          0.95401      0.33380      0.53194  1.0000
  O2          0.37081      0.04176      0.19836  1.0000
  O2          0.76736      0.30002      0.01238  1.0000
  O2          0.68480      0.47724      0.34751  1.0000
  O2          0.53260      0.23211      0.68001  1.0000
  O2          0.22829      0.70169      0.51550  1.0000
  O3          0.29321      0.54941      0.84278  1.0000
  O2          0.46347      0.76862      0.18111  1.0000
  O2          0.30324      0.77926      0.32559  1.0000
  O2          0.46323      0.69048      0.98966  1.0000
  O2          0.22681      0.53535      0.66072  1.0000
  O2          0.71091      0.24232      0.82519  1.0000
  O2          0.53105      0.30908      0.49319  1.0000
  O2          0.76605      0.46380      0.15751  1.0000
  O2          0.78110      0.53160      0.02978  1.0000
  O2          0.45345      0.25505      0.36455  1.0000
  O2          0.75076      0.21752      0.69710  1.0000
  O2          0.21342      0.46945      0.53266  1.0000
  O2          0.52705      0.74806      0.86485  1.0000
  O2          0.25578      0.78964      0.20096  1.0000
  O3          0.52741      0.77641      0.31415  1.0000
  O2          0.24895      0.46241      0.97254  1.0000
  O2          0.21108      0.75251      0.64339  1.0000
  O2          0.47853      0.23029      0.80843  1.0000
  O2          0.74709      0.54084      0.47429  1.0000
  O2          0.77986      0.24648      0.14035  1.0000
  O3          0.21007      0.30578      0.90176  1.0000
  O3          0.68627      0.90977      0.22827  1.0000
  O2          0.08798      0.77161      0.56836  1.0000
  O2          0.75603      0.68454      0.40164  1.0000
  O2          0.32699      0.10519      0.73522  1.0000
  O2          0.90507      0.22835      0.06749  1.0000
  O2          0.31563      0.23297      0.44030  1.0000
  O2          0.90474      0.67354      0.10451  1.0000
  O2          0.77243      0.09665      0.77209  1.0000
  O2          0.66870      0.76333      0.93689  1.0000
  O2          0.08921      0.32636      0.60564  1.0000
  O2          0.23948      0.91741      0.27150  1.0000
  O2          0.57971      0.55404      0.98822  1.0000
  O2          0.44506      0.03538      0.32644  1.0000
  O2          0.96832      0.41494      0.66000  1.0000
  O2          0.40769      0.44394      0.49619  1.0000
  O2          0.56465      0.98406      0.82861  1.0000
  O2          0.02623      0.58704      0.16049  1.0000
  O2          0.53982      0.58751      0.34774  1.0000
  O2          0.02667      0.43614      0.01267  1.0000
  O2          0.40672      0.97393      0.68143  1.0000
  O3          0.45038      0.41516      0.83835  1.0000
  O2          0.96914      0.56269      0.51196  1.0000
  O2          0.58032      0.02516      0.17860  1.0000
  O2          0.58054      0.16734      0.25126  1.0000
  O2          0.83145      0.42042      0.58503  1.0000
  O2          0.57833      0.41765      0.91568  1.0000
  O2          0.41634      0.84349      0.75582  1.0000
  O2          0.16354      0.57899      0.08745  1.0000
  O2          0.40486      0.58336      0.42324  1.0000
  F           0.48946      0.91144      0.25807  1.0000
  F           0.09366      0.55200      0.58680  1.0000
  F           0.41989      0.51933      0.90764  1.0000
  F           0.55378      0.10457      0.75413  1.0000
  F           0.90138      0.44945      0.08593  1.0000
  F           0.53634      0.45348      0.42107  1.0000
