data_cif

_audit_creation_method             'generated by GULP'

_symmetry_space_group_name_H-M     'P 1'
_symmetry_Int_Tables_number        1
_symmetry_cell_setting             triclinic

_cell_length_a                       11.9229
_cell_length_b                       11.9773
_cell_length_c                       29.4192
_cell_angle_alpha                   89.8407
_cell_angle_beta                    90.7896
_cell_angle_gamma                  119.8370

loop_
_atom_site_label
_atom_site_fract_x
_atom_site_fract_y
_atom_site_fract_z
_atom_site_occupancy
  Si          0.69960      0.37570      0.03389  1.0000
  Si          0.61134      0.32485      0.36894  1.0000
  Si          0.68014      0.30070      0.70077  1.0000
  Si          0.29317      0.62308      0.53612  1.0000
  Si          0.37003      0.68034      0.86514  1.0000
  Si          0.31250      0.69472      0.19967  1.0000
  Si          0.36738      0.70127      0.30301  1.0000
  Si          0.31371      0.61346      0.96708  1.0000
  Si          0.29605      0.67814      0.63684  1.0000
  Si          0.63368      0.30395      0.80149  1.0000
  Si          0.66999      0.37990      0.46972  1.0000
  Si          0.70543      0.32553      0.13447  1.0000
  Si          0.52405      0.40777      0.96670  1.0000
  Si          0.57448      0.11608      0.30348  1.0000
  Si          0.88712      0.47362      0.63612  1.0000
  Si          0.46209      0.58350      0.47068  1.0000
  Si          0.42209      0.89970      0.80310  1.0000
  Si          0.11090      0.52003      0.13455  1.0000
  Si          0.40846      0.53039      0.36885  1.0000
  Si          0.10713      0.57383      0.03318  1.0000
  Si          0.46949      0.89059      0.70182  1.0000
  Si          0.58589      0.46747      0.86395  1.0000
  Si          0.88410      0.42047      0.53448  1.0000
  Si          0.52475      0.12104      0.19927  1.0000
  Ge          0.31149      0.41081      0.85802  1.0000
  Si          0.59366      0.90528      0.18555  1.0000
  Si          0.09152      0.70026      0.52064  1.0000
  Si          0.68903      0.60267      0.35452  1.0000
  Si          0.39998      0.10174      0.68741  1.0000
  Si          0.89737      0.29441      0.01875  1.0000
  Si          0.39129      0.30277      0.48462  1.0000
  Si          0.90886      0.60206      0.15089  1.0000
  Si          0.70617      0.10050      0.81689  1.0000
  Si          0.59664      0.69251      0.98233  1.0000
  Si          0.09615      0.39969      0.65159  1.0000
  Si          0.28898      0.90433      0.32034  1.0000
  Si          0.23885      0.32580      0.95358  1.0000
  Si          0.65417      0.91419      0.28803  1.0000
  Si          0.08676      0.75192      0.62142  1.0000
  Si          0.74149      0.66090      0.45545  1.0000
  Si          0.34724      0.10317      0.78819  1.0000
  Si          0.90731      0.24334      0.11946  1.0000
  Si          0.33020      0.25216      0.38359  1.0000
  Si          0.90923      0.65525      0.04965  1.0000
  Si          0.75004      0.09025      0.71602  1.0000
  Si          0.65728      0.74794      0.88085  1.0000
  Si          0.08599      0.34294      0.55043  1.0000
  Ge          0.26147      0.91028      0.21998  1.0000
  Si          0.96417      0.11275      0.97056  1.0000
  Si          0.87105      0.84656      0.30268  1.0000
  Si          0.14941      0.03177      0.63681  1.0000
  Si          0.02096      0.88008      0.47081  1.0000
  Si          0.12502      0.16077      0.80472  1.0000
  Si          0.84163      0.96344      0.13674  1.0000
  Si          0.11289      0.97248      0.37039  1.0000
  Si          0.84302      0.87028      0.03565  1.0000
  Si          0.02952      0.15230      0.70275  1.0000
  Si          0.88207      0.02641      0.86808  1.0000
  Si          0.14569      0.12387      0.53576  1.0000
  Si          0.97400      0.84922      0.20283  1.0000
  O2          0.92036      0.99294      0.00405  1.0000
  O2          0.99218      0.92638      0.33613  1.0000
  O2          0.07136      0.07314      0.66991  1.0000
  O2          0.06326      0.00098      0.50373  1.0000
  O2          0.00379      0.06646      0.83645  1.0000
  O2          0.91665      0.91906      0.17049  1.0000
  O2          0.33220      0.58029      0.33576  1.0000
  O2          0.41939      0.76374      0.66992  1.0000
  O2          0.23121      0.65130      0.00055  1.0000
  O2          0.67552      0.42742      0.83471  1.0000
  O2          0.58528      0.24843      0.16823  1.0000
  O2          0.75699      0.34226      0.50203  1.0000
  O2          0.57609      0.33632      0.00042  1.0000
  O2          0.76174      0.42342      0.66805  1.0000
  O2          0.65053      0.24091      0.33613  1.0000
  O2          0.41531      0.66085      0.50322  1.0000
  O2          0.23788      0.56748      0.16728  1.0000
  O2          0.34175      0.77939      0.83687  1.0000
  O2          0.11774      0.20580      0.97890  1.0000
  O2          0.77953      0.91112      0.30756  1.0000
  O2          0.08657      0.87769      0.64152  1.0000
  O2          0.86688      0.78731      0.47621  1.0000
  O2          0.22540      0.10605      0.80968  1.0000
  O2          0.90741      0.11802      0.14030  1.0000
  O2          0.20189      0.12644      0.36380  1.0000
  O2          0.90871      0.78171      0.02981  1.0000
  O2          0.87500      0.08921      0.69552  1.0000
  O2          0.78386      0.87297      0.86169  1.0000
  O2          0.08396      0.21627      0.52990  1.0000
  O3          0.12332      0.91737      0.19823  1.0000
  O2          0.92064      0.85432      0.25244  1.0000
  O2          0.13425      0.07247      0.58638  1.0000
  O2          0.92889      0.05656      0.92008  1.0000
  O2          0.06717      0.13734      0.75346  1.0000
  O2          0.85034      0.91780      0.08661  1.0000
  O2          0.05649      0.93539      0.42041  1.0000
  O2          0.89261      0.19469      0.98034  1.0000
  O2          0.78598      0.69668      0.31590  1.0000
  O2          0.30190      0.10127      0.64844  1.0000
  O2          0.09220      0.79850      0.48212  1.0000
  O3          0.19564      0.30698      0.81630  1.0000
  O2          0.68958      0.90139      0.14811  1.0000
  O2          0.20101      0.90670      0.36200  1.0000
  O2          0.69122      0.78609      0.02200  1.0000
  O2          0.09858      0.30379      0.69009  1.0000
  O2          0.80382      0.10055      0.85587  1.0000
  O2          0.29694      0.20455      0.52297  1.0000
  O2          0.91014      0.69680      0.18997  1.0000
  O2          0.31384      0.64761      0.25205  1.0000
  O2          0.35289      0.67966      0.58648  1.0000
  O2          0.31464      0.67009      0.91690  1.0000
  O2          0.68614      0.36033      0.75104  1.0000
  O2          0.64321      0.31974      0.08410  1.0000
  O2          0.66996      0.32409      0.41917  1.0000
  O2          0.36822      0.32122      0.96965  1.0000
  O2          0.66013      0.04459      0.30593  1.0000
  O2          0.95473      0.62941      0.63933  1.0000
  O2          0.61869      0.67091      0.47305  1.0000
  O2          0.33617      0.96957      0.80550  1.0000
  O2          0.04266      0.36439      0.13691  1.0000
  O2          0.32057      0.37472      0.36469  1.0000
  O2          0.03856      0.66181      0.02990  1.0000
  O2          0.62578      0.95835      0.69790  1.0000
  O2          0.66658      0.62458      0.86421  1.0000
  O2          0.95301      0.33302      0.53150  1.0000
  O3          0.37258      0.05914      0.19447  1.0000
  O2          0.76561      0.29974      0.01073  1.0000
  O2          0.68541      0.46719      0.34636  1.0000
  O2          0.53527      0.23271      0.67869  1.0000
  O2          0.22525      0.69894      0.51325  1.0000
  O3          0.29466      0.54464      0.84069  1.0000
  O2          0.45942      0.77123      0.18035  1.0000
  O2          0.29405      0.77117      0.32487  1.0000
  O2          0.46016      0.68788      0.98761  1.0000
  O2          0.22966      0.53493      0.65876  1.0000
  O2          0.71013      0.23629      0.82383  1.0000
  O2          0.52682      0.30406      0.49159  1.0000
  O2          0.77362      0.46869      0.15634  1.0000
  O2          0.77925      0.53187      0.03028  1.0000
  O2          0.45454      0.24916      0.36383  1.0000
  O2          0.75297      0.21740      0.69604  1.0000
  O2          0.21241      0.46727      0.53091  1.0000
  O2          0.52743      0.74349      0.86289  1.0000
  O3          0.23160      0.76677      0.19214  1.0000
  O2          0.52288      0.79222      0.30513  1.0000
  O2          0.24723      0.45889      0.97092  1.0000
  O2          0.21337      0.75178      0.64120  1.0000
  O2          0.47809      0.22500      0.80736  1.0000
  O2          0.74224      0.53540      0.47489  1.0000
  O2          0.78398      0.24725      0.13956  1.0000
  O3          0.20954      0.30097      0.90097  1.0000
  O2          0.66392      0.91456      0.23372  1.0000
  O2          0.08737      0.77067      0.56695  1.0000
  O2          0.76101      0.67705      0.40106  1.0000
  O2          0.32916      0.10432      0.73357  1.0000
  O2          0.90077      0.22240      0.06507  1.0000
  O2          0.31490      0.23375      0.43795  1.0000
  O2          0.91438      0.67577      0.10394  1.0000
  O2          0.77278      0.09215      0.77043  1.0000
  O2          0.66661      0.75933      0.93563  1.0000
  O2          0.09029      0.32595      0.60478  1.0000
  O3          0.20987      0.90666      0.27682  1.0000
  O2          0.57558      0.55027      0.98738  1.0000
  O2          0.43362      0.02771      0.32540  1.0000
  O2          0.97183      0.41644      0.65948  1.0000
  O2          0.40683      0.44258      0.49343  1.0000
  O2          0.56512      0.97855      0.82632  1.0000
  O2          0.02862      0.57719      0.15852  1.0000
  O2          0.54979      0.59176      0.34573  1.0000
  O2          0.02455      0.43238      0.00995  1.0000
  O2          0.41009      0.97389      0.67914  1.0000
  O3          0.45014      0.40871      0.83806  1.0000
  O2          0.96588      0.56112      0.51109  1.0000
  O2          0.57448      0.02747      0.17771  1.0000
  O2          0.57363      0.16451      0.25206  1.0000
  O2          0.83204      0.42075      0.58515  1.0000
  O2          0.57613      0.41201      0.91583  1.0000
  O2          0.41949      0.84066      0.75302  1.0000
  O2          0.16329      0.57468      0.08391  1.0000
  O2          0.40664      0.58252      0.41962  1.0000
  F           0.40855      0.90805      0.24668  1.0000
  F           0.09356      0.55090      0.58483  1.0000
  F           0.41871      0.51478      0.90653  1.0000
  F           0.55465      0.10159      0.75175  1.0000
  F           0.90152      0.44523      0.08289  1.0000
  F           0.53853      0.45280      0.41802  1.0000
