data_cif

_audit_creation_method             'generated by GULP'

_symmetry_space_group_name_H-M     'P 1'
_symmetry_Int_Tables_number        1
_symmetry_cell_setting             triclinic

_cell_length_a                       11.9757
_cell_length_b                       12.0019
_cell_length_c                       29.3759
_cell_angle_alpha                   90.2075
_cell_angle_beta                    90.2909
_cell_angle_gamma                  120.2286

loop_
_atom_site_label
_atom_site_fract_x
_atom_site_fract_y
_atom_site_fract_z
_atom_site_occupancy
  Si          0.69960      0.37570      0.03389  1.0000
  Si          0.62392      0.32889      0.36834  1.0000
  Si          0.68631      0.30306      0.70073  1.0000
  Si          0.30405      0.62692      0.53660  1.0000
  Si          0.37575      0.68589      0.86656  1.0000
  Si          0.32091      0.70340      0.20389  1.0000
  Si          0.38342      0.70848      0.30435  1.0000
  Si          0.31854      0.61784      0.96867  1.0000
  Si          0.30222      0.68125      0.63742  1.0000
  Si          0.63896      0.30877      0.80158  1.0000
  Si          0.68191      0.38363      0.46943  1.0000
  Si          0.69723      0.32621      0.13536  1.0000
  Si          0.52802      0.41125      0.96694  1.0000
  Si          0.58786      0.11936      0.30279  1.0000
  Si          0.89437      0.47498      0.63566  1.0000
  Si          0.47573      0.58822      0.47191  1.0000
  Si          0.42640      0.90440      0.80432  1.0000
  Si          0.11100      0.53492      0.13733  1.0000
  Si          0.42025      0.53583      0.36984  1.0000
  Si          0.11054      0.57924      0.03504  1.0000
  Si          0.47442      0.89380      0.70280  1.0000
  Si          0.59092      0.47308      0.86400  1.0000
  Si          0.89468      0.42225      0.53381  1.0000
  Si          0.52971      0.11696      0.20099  1.0000
  Ge          0.31725      0.41613      0.85844  1.0000
  Si          0.59623      0.90548      0.18681  1.0000
  Si          0.10348      0.70313      0.52060  1.0000
  Si          0.69983      0.60653      0.35528  1.0000
  Si          0.40545      0.10400      0.68791  1.0000
  Si          0.90014      0.29715      0.02129  1.0000
  Si          0.40432      0.30761      0.48515  1.0000
  Si          0.90050      0.60506      0.14963  1.0000
  Si          0.71058      0.10625      0.81718  1.0000
  Si          0.60047      0.69576      0.98356  1.0000
  Si          0.10191      0.40191      0.65139  1.0000
  Si          0.30733      0.91066      0.31908  1.0000
  Si          0.24390      0.33058      0.95404  1.0000
  Si          0.66471      0.91807      0.28699  1.0000
  Si          0.09454      0.75437      0.62149  1.0000
  Si          0.75419      0.66481      0.45612  1.0000
  Si          0.35218      0.10707      0.78897  1.0000
  Si          0.90764      0.25600      0.12288  1.0000
  Si          0.34364      0.25772      0.38407  1.0000
  Si          0.90914      0.65636      0.04825  1.0000
  Si          0.75580      0.09348      0.71627  1.0000
  Si          0.66201      0.75341      0.88182  1.0000
  Si          0.09553      0.34537      0.55007  1.0000
  Si          0.25274      0.91377      0.21819  1.0000
  Si          0.96876      0.11814      0.97058  1.0000
  Si          0.88063      0.85320      0.30420  1.0000
  Si          0.15618      0.03416      0.63693  1.0000
  Si          0.03537      0.88303      0.47064  1.0000
  Si          0.13098      0.16571      0.80457  1.0000
  Ge          0.84730      0.97346      0.13728  1.0000
  Si          0.12594      0.97710      0.36955  1.0000
  Si          0.84970      0.87352      0.03440  1.0000
  Si          0.03511      0.15484      0.70263  1.0000
  Si          0.88640      0.03364      0.86778  1.0000
  Si          0.15728      0.12776      0.53581  1.0000
  Si          0.97289      0.85125      0.20313  1.0000
  O2          0.92377      0.99307      0.00103  1.0000
  O2          0.00271      0.93404      0.33714  1.0000
  O2          0.07665      0.07516      0.66970  1.0000
  O2          0.07758      0.00509      0.50321  1.0000
  O2          0.00732      0.07172      0.83573  1.0000
  O3          0.93740      0.93863      0.17349  1.0000
  O2          0.34520      0.58721      0.33760  1.0000
  O2          0.42413      0.76635      0.67103  1.0000
  O2          0.23572      0.65491      0.00248  1.0000
  O2          0.68058      0.43342      0.83453  1.0000
  O2          0.57481      0.24122      0.16823  1.0000
  O2          0.76833      0.34508      0.50112  1.0000
  O2          0.57796      0.33702      0.99986  1.0000
  O2          0.76825      0.42476      0.66751  1.0000
  O2          0.66370      0.24601      0.33517  1.0000
  O2          0.42834      0.66530      0.50455  1.0000
  O2          0.23438      0.58054      0.17089  1.0000
  O2          0.34722      0.78439      0.83857  1.0000
  O2          0.12193      0.21107      0.97957  1.0000
  O2          0.79200      0.91941      0.30697  1.0000
  O2          0.09310      0.87983      0.64146  1.0000
  O2          0.88119      0.79122      0.47637  1.0000
  O2          0.23017      0.11056      0.81010  1.0000
  O3          0.91170      0.13667      0.14480  1.0000
  O2          0.21587      0.13123      0.36402  1.0000
  O2          0.91054      0.78140      0.02682  1.0000
  O2          0.88046      0.09121      0.69607  1.0000
  O2          0.78853      0.87935      0.86275  1.0000
  O2          0.09502      0.21901      0.52979  1.0000
  O2          0.12643      0.91160      0.19770  1.0000
  O2          0.93414      0.85884      0.25438  1.0000
  O2          0.14342      0.07551      0.58644  1.0000
  O2          0.93527      0.06960      0.91925  1.0000
  O2          0.07477      0.14192      0.75316  1.0000
  O3          0.87100      0.92885      0.08442  1.0000
  O2          0.07356      0.93621      0.42002  1.0000
  O2          0.89627      0.19692      0.98327  1.0000
  O2          0.79643      0.70294      0.31684  1.0000
  O2          0.30806      0.10356      0.64915  1.0000
  O2          0.10555      0.80159      0.48220  1.0000
  O3          0.20234      0.31220      0.81643  1.0000
  O3          0.68437      0.89791      0.14706  1.0000
  O2          0.20997      0.90976      0.35749  1.0000
  O2          0.69568      0.78927      0.02337  1.0000
  O2          0.10363      0.30616      0.68983  1.0000
  O2          0.80810      0.10669      0.85580  1.0000
  O2          0.30907      0.20964      0.52368  1.0000
  O2          0.89740      0.70127      0.18778  1.0000
  O2          0.32224      0.64801      0.25434  1.0000
  O2          0.36127      0.68361      0.58722  1.0000
  O2          0.32085      0.67557      0.91867  1.0000
  O2          0.69249      0.36419      0.75098  1.0000
  O2          0.64035      0.32158      0.08427  1.0000
  O2          0.68124      0.32787      0.41866  1.0000
  O2          0.37206      0.32535      0.97002  1.0000
  O2          0.67558      0.05100      0.30541  1.0000
  O2          0.96193      0.63100      0.63908  1.0000
  O2          0.63248      0.67533      0.47462  1.0000
  O2          0.34079      0.97399      0.80684  1.0000
  O2          0.04119      0.37972      0.14008  1.0000
  O2          0.33253      0.37950      0.36595  1.0000
  O2          0.04098      0.66513      0.03034  1.0000
  O2          0.63057      0.96109      0.69869  1.0000
  O2          0.67145      0.63058      0.86458  1.0000
  O2          0.96335      0.33504      0.53084  1.0000
  O2          0.37310      0.04610      0.19896  1.0000
  O2          0.76786      0.30004      0.01251  1.0000
  O2          0.69829      0.47243      0.34646  1.0000
  O2          0.54148      0.23482      0.67904  1.0000
  O2          0.23730      0.70250      0.51352  1.0000
  O3          0.30035      0.54985      0.84197  1.0000
  O2          0.46233      0.77020      0.18071  1.0000
  O2          0.31049      0.77867      0.32660  1.0000
  O2          0.46450      0.69114      0.98941  1.0000
  O2          0.23500      0.53769      0.65912  1.0000
  O2          0.71496      0.24218      0.82421  1.0000
  O2          0.53893      0.30822      0.49190  1.0000
  O2          0.76567      0.47107      0.15670  1.0000
  O2          0.78069      0.53150      0.02875  1.0000
  O2          0.46736      0.25514      0.36368  1.0000
  O2          0.75859      0.21978      0.69603  1.0000
  O2          0.22261      0.47082      0.53101  1.0000
  O2          0.53292      0.74927      0.86415  1.0000
  O2          0.24772      0.78538      0.19908  1.0000
  O2          0.54021      0.79150      0.30694  1.0000
  O2          0.25160      0.46309      0.97183  1.0000
  O2          0.22017      0.75494      0.64174  1.0000
  O2          0.48329      0.22983      0.80782  1.0000
  O2          0.75531      0.53946      0.47505  1.0000
  O2          0.78068      0.25498      0.14151  1.0000
  O3          0.21492      0.30556      0.90140  1.0000
  O2          0.68023      0.91578      0.23217  1.0000
  O2          0.09779      0.77332      0.56697  1.0000
  O2          0.77246      0.68182      0.40166  1.0000
  O2          0.33471      0.10662      0.73430  1.0000
  O2          0.90133      0.22815      0.06847  1.0000
  O2          0.32783      0.23810      0.43849  1.0000
  O2          0.90605      0.67775      0.10258  1.0000
  O2          0.77768      0.09722      0.77073  1.0000
  O2          0.67046      0.76327      0.93675  1.0000
  O2          0.09729      0.32824      0.60451  1.0000
  O2          0.23605      0.91397      0.27265  1.0000
  O2          0.57925      0.55341      0.98837  1.0000
  O2          0.44803      0.03596      0.32674  1.0000
  O2          0.97742      0.41761      0.65926  1.0000
  O2          0.41968      0.44710      0.49456  1.0000
  O2          0.56943      0.98415      0.82718  1.0000
  O2          0.02636      0.59260      0.15923  1.0000
  O2          0.56094      0.59404      0.34649  1.0000
  O2          0.02814      0.43567      0.01303  1.0000
  O2          0.41570      0.97638      0.67993  1.0000
  O3          0.45567      0.41449      0.83820  1.0000
  O2          0.97825      0.56339      0.51075  1.0000
  O2          0.58469      0.03192      0.17730  1.0000
  O2          0.58606      0.17128      0.25179  1.0000
  O2          0.84112      0.42182      0.58453  1.0000
  O2          0.58045      0.41708      0.91584  1.0000
  O2          0.42352      0.84461      0.75416  1.0000
  O2          0.16528      0.58632      0.08638  1.0000
  O2          0.42082      0.58783      0.42103  1.0000
  F           0.45653      0.90954      0.25180  1.0000
  F           0.10245      0.55361      0.58510  1.0000
  F           0.42405      0.51981      0.90725  1.0000
  F           0.56015      0.10577      0.75263  1.0000
  F           0.90117      0.45297      0.08471  1.0000
  F           0.55168      0.45759      0.41929  1.0000
