data_cif

_audit_creation_method             'generated by GULP'

_symmetry_space_group_name_H-M     'P 1'
_symmetry_Int_Tables_number        1
_symmetry_cell_setting             triclinic

_cell_length_a                       11.9792
_cell_length_b                       11.9820
_cell_length_c                       29.3818
_cell_angle_alpha                   90.1166
_cell_angle_beta                    90.3072
_cell_angle_gamma                  120.1010

loop_
_atom_site_label
_atom_site_fract_x
_atom_site_fract_y
_atom_site_fract_z
_atom_site_occupancy
  Si          0.69960      0.37570      0.03389  1.0000
  Si          0.61977      0.32518      0.36901  1.0000
  Si          0.68533      0.30183      0.70088  1.0000
  Si          0.30324      0.62605      0.53618  1.0000
  Si          0.37343      0.68296      0.86610  1.0000
  Si          0.32141      0.70018      0.20181  1.0000
  Si          0.37291      0.70216      0.30331  1.0000
  Si          0.31570      0.61565      0.96829  1.0000
  Si          0.30199      0.67991      0.63717  1.0000
  Si          0.63711      0.30589      0.80164  1.0000
  Si          0.68113      0.38485      0.46942  1.0000
  Si          0.69947      0.32127      0.13479  1.0000
  Si          0.52562      0.40883      0.96701  1.0000
  Si          0.57754      0.11591      0.30249  1.0000
  Si          0.89385      0.47433      0.63615  1.0000
  Si          0.47484      0.58927      0.47073  1.0000
  Si          0.42556      0.90208      0.80384  1.0000
  Si          0.11028      0.52736      0.13654  1.0000
  Si          0.41512      0.53386      0.36895  1.0000
  Si          0.10841      0.57814      0.03453  1.0000
  Si          0.47421      0.89240      0.70237  1.0000
  Si          0.58828      0.46957      0.86405  1.0000
  Si          0.89306      0.42182      0.53430  1.0000
  Si          0.52841      0.11204      0.20019  1.0000
  Ge          0.31498      0.41302      0.85847  1.0000
  Si          0.59959      0.90183      0.18800  1.0000
  Si          0.10190      0.70215      0.52115  1.0000
  Si          0.69319      0.60089      0.35337  1.0000
  Si          0.40510      0.10320      0.68771  1.0000
  Si          0.89970      0.29738      0.01961  1.0000
  Si          0.40330      0.30877      0.48574  1.0000
  Si          0.90146      0.59934      0.15066  1.0000
  Si          0.70927      0.10323      0.81715  1.0000
  Si          0.59738      0.69352      0.98292  1.0000
  Si          0.10141      0.40096      0.65150  1.0000
  Si          0.29701      0.90496      0.31583  1.0000
  Si          0.24171      0.32801      0.95417  1.0000
  Si          0.65315      0.91311      0.28936  1.0000
  Si          0.09423      0.75349      0.62195  1.0000
  Si          0.75283      0.66609      0.45360  1.0000
  Si          0.35092      0.10497      0.78872  1.0000
  Si          0.90795      0.24845      0.12068  1.0000
  Si          0.34141      0.25691      0.38489  1.0000
  Si          0.90822      0.65615      0.04975  1.0000
  Si          0.75497      0.09178      0.71620  1.0000
  Si          0.65942      0.75036      0.88130  1.0000
  Si          0.09415      0.34484      0.55017  1.0000
  Si          0.24987      0.90944      0.21437  1.0000
  Si          0.96660      0.11576      0.97044  1.0000
  Ge          0.87506      0.85179      0.30312  1.0000
  Si          0.15595      0.03351      0.63702  1.0000
  Si          0.03440      0.88264      0.47055  1.0000
  Si          0.12911      0.16279      0.80467  1.0000
  Si          0.84533      0.96859      0.13597  1.0000
  Si          0.12414      0.97723      0.36940  1.0000
  Si          0.84410      0.87229      0.03507  1.0000
  Si          0.03419      0.15347      0.70274  1.0000
  Si          0.88465      0.02990      0.86783  1.0000
  Si          0.15596      0.12706      0.53591  1.0000
  Si          0.97197      0.84972      0.19998  1.0000
  O2          0.92093      0.99236      0.00222  1.0000
  O3          0.00150      0.94190      0.33913  1.0000
  O2          0.07648      0.07440      0.66983  1.0000
  O2          0.07589      0.00429      0.50340  1.0000
  O2          0.00600      0.06852      0.83598  1.0000
  O2          0.92842      0.92752      0.16690  1.0000
  O2          0.33574      0.58095      0.33678  1.0000
  O2          0.42429      0.76522      0.67049  1.0000
  O2          0.23360      0.65408      0.00199  1.0000
  O2          0.67827      0.43004      0.83475  1.0000
  O2          0.57645      0.23597      0.16714  1.0000
  O2          0.76676      0.34645      0.50164  1.0000
  O2          0.57729      0.33669      0.00028  1.0000
  O2          0.76785      0.42427      0.66797  1.0000
  O2          0.65560      0.24040      0.33541  1.0000
  O2          0.42692      0.66553      0.50371  1.0000
  O2          0.23629      0.57598      0.16905  1.0000
  O2          0.34547      0.78180      0.83793  1.0000
  O2          0.11959      0.20796      0.97943  1.0000
  O3          0.77792      0.91783      0.31091  1.0000
  O2          0.09337      0.87925      0.64199  1.0000
  O2          0.87954      0.79232      0.47393  1.0000
  O2          0.22868      0.10785      0.80989  1.0000
  O2          0.90826      0.12290      0.14109  1.0000
  O2          0.21610      0.13097      0.36454  1.0000
  O2          0.90891      0.78306      0.03010  1.0000
  O2          0.87983      0.09003      0.69598  1.0000
  O2          0.78622      0.87589      0.86219  1.0000
  O2          0.09332      0.21821      0.52988  1.0000
  O2          0.12520      0.90934      0.19258  1.0000
  O3          0.93992      0.87318      0.24991  1.0000
  O2          0.14221      0.07412      0.58648  1.0000
  O2          0.93261      0.06320      0.91953  1.0000
  O2          0.07266      0.13953      0.75334  1.0000
  O2          0.85331      0.92665      0.08514  1.0000
  O2          0.07818      0.93619      0.42049  1.0000
  O2          0.89562      0.19734      0.98137  1.0000
  O3          0.78722      0.68946      0.31346  1.0000
  O2          0.30783      0.10315      0.64895  1.0000
  O2          0.10290      0.80013      0.48286  1.0000
  O3          0.20002      0.30917      0.81661  1.0000
  O2          0.69525      0.89866      0.14969  1.0000
  O2          0.19939      0.90320      0.35404  1.0000
  O2          0.69222      0.78692      0.02253  1.0000
  O2          0.10302      0.30498      0.68998  1.0000
  O2          0.80672      0.10362      0.85583  1.0000
  O2          0.30798      0.21044      0.52422  1.0000
  O2          0.89992      0.69628      0.18917  1.0000
  O2          0.31859      0.64365      0.25254  1.0000
  O2          0.36028      0.68204      0.58685  1.0000
  O2          0.31809      0.67282      0.91812  1.0000
  O2          0.69089      0.36226      0.75115  1.0000
  O2          0.64171      0.31952      0.08416  1.0000
  O2          0.67831      0.32505      0.41919  1.0000
  O2          0.36989      0.32286      0.97030  1.0000
  O2          0.66355      0.04679      0.30596  1.0000
  O2          0.96166      0.63044      0.63962  1.0000
  O2          0.63144      0.67653      0.47269  1.0000
  O2          0.33982      0.97165      0.80636  1.0000
  O2          0.04088      0.37107      0.13909  1.0000
  O2          0.32872      0.37755      0.36635  1.0000
  O2          0.03976      0.66554      0.03099  1.0000
  O2          0.63019      0.95970      0.69839  1.0000
  O2          0.66878      0.62707      0.86444  1.0000
  O2          0.96180      0.33447      0.53108  1.0000
  O2          0.37225      0.04153      0.19616  1.0000
  O2          0.76733      0.30038      0.01164  1.0000
  O2          0.69367      0.46724      0.34641  1.0000
  O2          0.54096      0.23408      0.67897  1.0000
  O2          0.23547      0.70145      0.51361  1.0000
  O3          0.29814      0.54682      0.84168  1.0000
  O2          0.46495      0.76796      0.17992  1.0000
  O2          0.29731      0.77141      0.32406  1.0000
  O2          0.46161      0.68904      0.98877  1.0000
  O2          0.23480      0.53631      0.65898  1.0000
  O2          0.71314      0.23906      0.82423  1.0000
  O2          0.53886      0.31134      0.49236  1.0000
  O2          0.76742      0.46475      0.15740  1.0000
  O2          0.78015      0.53206      0.02968  1.0000
  O2          0.46399      0.25235      0.36486  1.0000
  O2          0.75771      0.21847      0.69611  1.0000
  O2          0.22113      0.46988      0.53087  1.0000
  O2          0.53040      0.74611      0.86355  1.0000
  O2          0.24772      0.78183      0.19557  1.0000
  O2          0.52832      0.78635      0.30881  1.0000
  O2          0.24918      0.46075      0.97179  1.0000
  O2          0.21995      0.75367      0.64186  1.0000
  O2          0.48163      0.22729      0.80777  1.0000
  O2          0.75552      0.54123      0.47272  1.0000
  O2          0.78201      0.24815      0.13988  1.0000
  O3          0.21295      0.30277      0.90154  1.0000
  O2          0.67315      0.90577      0.23492  1.0000
  O2          0.09698      0.77276      0.56748  1.0000
  O2          0.76896      0.68317      0.39880  1.0000
  O2          0.33410      0.10553      0.73405  1.0000
  O2          0.90445      0.22816      0.06625  1.0000
  O2          0.32652      0.23886      0.43935  1.0000
  O2          0.90713      0.67428      0.10417  1.0000
  O2          0.77638      0.09457      0.77067  1.0000
  O2          0.66766      0.76102      0.93617  1.0000
  O2          0.09630      0.32728      0.60458  1.0000
  O2          0.22722      0.90735      0.26871  1.0000
  O2          0.57683      0.55138      0.98796  1.0000
  O2          0.43552      0.03187      0.32460  1.0000
  O2          0.97714      0.41687      0.65965  1.0000
  O2          0.41935      0.44899      0.49420  1.0000
  O2          0.56818      0.98112      0.82691  1.0000
  O2          0.02586      0.58374      0.15972  1.0000
  O2          0.55456      0.58976      0.34481  1.0000
  O2          0.02590      0.43663      0.01107  1.0000
  O2          0.41566      0.97556      0.67961  1.0000
  O3          0.45319      0.41099      0.83829  1.0000
  O2          0.97637      0.56302      0.51136  1.0000
  O2          0.58788      0.02832      0.17860  1.0000
  O2          0.57890      0.16811      0.25125  1.0000
  O2          0.84005      0.42112      0.58510  1.0000
  O2          0.57756      0.41355      0.91594  1.0000
  O2          0.42324      0.84272      0.75369  1.0000
  O2          0.16262      0.58016      0.08556  1.0000
  O2          0.41854      0.58820      0.42002  1.0000
  F           0.44884      0.90413      0.25128  1.0000
  F           0.10100      0.55241      0.58536  1.0000
  F           0.42155      0.51698      0.90715  1.0000
  F           0.55917      0.10399      0.75247  1.0000
  F           0.90106      0.45009      0.08433  1.0000
  F           0.55094      0.45901      0.41845  1.0000
