data_cif

_audit_creation_method             'generated by GULP'

_symmetry_space_group_name_H-M     'P 1'
_symmetry_Int_Tables_number        1
_symmetry_cell_setting             triclinic

_cell_length_a                       11.9746
_cell_length_b                       12.0003
_cell_length_c                       29.3879
_cell_angle_alpha                   90.0587
_cell_angle_beta                    90.4747
_cell_angle_gamma                  120.2230

loop_
_atom_site_label
_atom_site_fract_x
_atom_site_fract_y
_atom_site_fract_z
_atom_site_occupancy
  Si          0.69960      0.37570      0.03389  1.0000
  Si          0.62125      0.32675      0.36704  1.0000
  Si          0.68721      0.30228      0.70130  1.0000
  Si          0.30384      0.62676      0.53485  1.0000
  Si          0.37287      0.68374      0.86601  1.0000
  Si          0.32207      0.70256      0.20152  1.0000
  Si          0.37974      0.70488      0.30249  1.0000
  Si          0.31613      0.61692      0.96827  1.0000
  Si          0.30432      0.67662      0.63620  1.0000
  Si          0.63504      0.30541      0.80157  1.0000
  Si          0.67975      0.38268      0.46794  1.0000
  Si          0.69963      0.32142      0.13475  1.0000
  Si          0.52586      0.41010      0.96733  1.0000
  Si          0.58457      0.11631      0.30196  1.0000
  Si          0.89337      0.46822      0.63481  1.0000
  Si          0.47350      0.58713      0.46971  1.0000
  Si          0.42289      0.90113      0.80321  1.0000
  Si          0.11040      0.52832      0.13631  1.0000
  Si          0.41752      0.53266      0.36771  1.0000
  Si          0.10861      0.57864      0.03431  1.0000
  Si          0.47299      0.88950      0.70199  1.0000
  Si          0.58807      0.47007      0.86435  1.0000
  Si          0.89269      0.42146      0.53276  1.0000
  Si          0.52873      0.11243      0.19993  1.0000
  Ge          0.31486      0.41408      0.85898  1.0000
  Si          0.59962      0.90385      0.18647  1.0000
  Si          0.10248      0.70357      0.52047  1.0000
  Si          0.69751      0.60433      0.35290  1.0000
  Si          0.40794      0.10243      0.68643  1.0000
  Si          0.89943      0.29769      0.01962  1.0000
  Si          0.40224      0.30654      0.48357  1.0000
  Si          0.90160      0.60002      0.15023  1.0000
  Si          0.70668      0.10225      0.81795  1.0000
  Si          0.59808      0.69463      0.98319  1.0000
  Si          0.10289      0.39696      0.64905  1.0000
  Si          0.30374      0.90655      0.31638  1.0000
  Si          0.24150      0.32924      0.95453  1.0000
  Si          0.66115      0.91473      0.28735  1.0000
  Si          0.09469      0.74736      0.62183  1.0000
  Si          0.75173      0.66341      0.45376  1.0000
  Si          0.34820      0.10341      0.78681  1.0000
  Si          0.90833      0.24892      0.12070  1.0000
  Si          0.34083      0.25464      0.38259  1.0000
  Si          0.90843      0.65645      0.04931  1.0000
  Si          0.75297      0.09072      0.71722  1.0000
  Si          0.65919      0.75068      0.88147  1.0000
  Si          0.09485      0.34530      0.54738  1.0000
  Si          0.25015      0.91087      0.21544  1.0000
  Si          0.96641      0.11640      0.97085  1.0000
  Si          0.87798      0.85117      0.30204  1.0000
  Ge          0.15450      0.03017      0.63589  1.0000
  Si          0.03295      0.88111      0.46833  1.0000
  Si          0.12838      0.16365      0.80489  1.0000
  Si          0.84633      0.96936      0.13621  1.0000
  Si          0.12369      0.97334      0.36715  1.0000
  Si          0.84551      0.87299      0.03545  1.0000
  Si          0.03144      0.15199      0.70292  1.0000
  Si          0.88403      0.03043      0.86826  1.0000
  Si          0.15331      0.12704      0.53262  1.0000
  Si          0.96938      0.84825      0.20102  1.0000
  O2          0.92167      0.99388      0.00295  1.0000
  O2          0.00161      0.93168      0.33423  1.0000
  O3          0.06578      0.06574      0.67190  1.0000
  O2          0.07566      0.00648      0.49882  1.0000
  O2          0.00576      0.06988      0.83657  1.0000
  O2          0.92709      0.92855      0.16884  1.0000
  O2          0.34104      0.58247      0.33532  1.0000
  O2          0.42562      0.76236      0.67020  1.0000
  O2          0.23388      0.65503      0.00185  1.0000
  O2          0.67637      0.42887      0.83497  1.0000
  O2          0.57659      0.23689      0.16717  1.0000
  O2          0.76661      0.34506      0.49990  1.0000
  O2          0.57676      0.33698      0.00041  1.0000
  O2          0.76990      0.42207      0.66755  1.0000
  O2          0.66033      0.24303      0.33419  1.0000
  O2          0.42691      0.66510      0.50221  1.0000
  O2          0.23648      0.57801      0.16897  1.0000
  O2          0.34352      0.78119      0.83755  1.0000
  O2          0.11958      0.20937      0.97992  1.0000
  O2          0.78859      0.91590      0.30723  1.0000
  O3          0.09059      0.86705      0.64347  1.0000
  O2          0.87879      0.78951      0.47412  1.0000
  O2          0.22629      0.10640      0.80815  1.0000
  O2          0.90967      0.12375      0.14092  1.0000
  O2          0.21328      0.12779      0.36265  1.0000
  O2          0.90928      0.78325      0.02956  1.0000
  O2          0.87726      0.09044      0.69670  1.0000
  O2          0.78601      0.87633      0.86237  1.0000
  O2          0.09372      0.22061      0.52551  1.0000
  O2          0.12345      0.91092      0.19535  1.0000
  O2          0.92986      0.86157      0.25148  1.0000
  O3          0.13037      0.07067      0.58237  1.0000
  O2          0.93221      0.06308      0.92002  1.0000
  O2          0.07077      0.14401      0.75402  1.0000
  O2          0.85787      0.92598      0.08596  1.0000
  O2          0.07017      0.92840      0.41715  1.0000
  O2          0.89496      0.19742      0.98149  1.0000
  O2          0.79446      0.70017      0.31425  1.0000
  O3          0.31778      0.10665      0.64642  1.0000
  O2          0.10411      0.80206      0.48220  1.0000
  O3          0.20051      0.30969      0.81719  1.0000
  O2          0.69486      0.90058      0.14804  1.0000
  O2          0.20688      0.90585      0.35472  1.0000
  O2          0.69313      0.78828      0.02289  1.0000
  O2          0.10564      0.30168      0.68738  1.0000
  O2          0.80457      0.10297      0.85670  1.0000
  O2          0.30675      0.20887      0.52220  1.0000
  O2          0.89957      0.69656      0.18856  1.0000
  O2          0.32226      0.64645      0.25198  1.0000
  O2          0.36233      0.68117      0.58565  1.0000
  O2          0.31816      0.67379      0.91807  1.0000
  O2          0.69252      0.36284      0.75151  1.0000
  O2          0.64165      0.31918      0.08406  1.0000
  O2          0.67887      0.32603      0.41739  1.0000
  O2          0.36994      0.32421      0.97052  1.0000
  O2          0.67212      0.04785      0.30532  1.0000
  O2          0.96169      0.62333      0.63828  1.0000
  O2          0.63030      0.67418      0.47224  1.0000
  O2          0.33728      0.97078      0.80518  1.0000
  O2          0.04139      0.37217      0.13902  1.0000
  O2          0.32973      0.37630      0.36421  1.0000
  O2          0.03994      0.66582      0.03065  1.0000
  O2          0.62923      0.95808      0.69906  1.0000
  O2          0.66858      0.62763      0.86451  1.0000
  O2          0.96226      0.33544      0.52888  1.0000
  O2          0.37208      0.04294      0.19674  1.0000
  O2          0.76686      0.30039      0.01151  1.0000
  O2          0.69581      0.46992      0.34478  1.0000
  O2          0.54337      0.23466      0.67927  1.0000
  O2          0.23607      0.70269      0.51277  1.0000
  O3          0.29759      0.54722      0.84185  1.0000
  O2          0.46474      0.76986      0.17888  1.0000
  O2          0.30508      0.77368      0.32424  1.0000
  O2          0.46236      0.69045      0.98881  1.0000
  O2          0.23685      0.53203      0.65704  1.0000
  O2          0.70903      0.23721      0.82474  1.0000
  O2          0.53705      0.30750      0.49059  1.0000
  O2          0.76773      0.46520      0.15701  1.0000
  O2          0.78003      0.53200      0.02939  1.0000
  O2          0.46470      0.25239      0.36236  1.0000
  O2          0.75817      0.21821      0.69722  1.0000
  O2          0.22193      0.47112      0.52867  1.0000
  O2          0.53008      0.74661      0.86365  1.0000
  O2          0.24742      0.78362      0.19605  1.0000
  O2          0.53621      0.78875      0.30715  1.0000
  O2          0.24950      0.46215      0.97194  1.0000
  O2          0.22153      0.74870      0.64141  1.0000
  O2          0.47883      0.22727      0.80558  1.0000
  O2          0.75337      0.53853      0.47301  1.0000
  O2          0.78251      0.24869      0.13995  1.0000
  O3          0.21229      0.30384      0.90195  1.0000
  O2          0.67661      0.91087      0.23288  1.0000
  O2          0.10018      0.77351      0.56734  1.0000
  O2          0.76967      0.68011      0.39928  1.0000
  O2          0.33021      0.10103      0.73188  1.0000
  O2          0.90424      0.22855      0.06628  1.0000
  O2          0.32555      0.23605      0.43703  1.0000
  O2          0.90739      0.67473      0.10370  1.0000
  O2          0.77395      0.09342      0.77171  1.0000
  O2          0.66807      0.76138      0.93634  1.0000
  O2          0.09876      0.32512      0.60174  1.0000
  O2          0.23225      0.90983      0.26983  1.0000
  O2          0.57724      0.55254      0.98836  1.0000
  O2          0.44377      0.03219      0.32498  1.0000
  O2          0.97707      0.40992      0.65733  1.0000
  O2          0.41783      0.44628      0.49265  1.0000
  O2          0.56504      0.98001      0.82697  1.0000
  O2          0.02632      0.58500      0.15930  1.0000
  O2          0.55797      0.59062      0.34415  1.0000
  O2          0.02586      0.43693      0.01095  1.0000
  O2          0.41640      0.97349      0.67853  1.0000
  O3          0.45250      0.41101      0.83879  1.0000
  O2          0.97577      0.56448      0.51102  1.0000
  O2          0.58599      0.02884      0.17684  1.0000
  O2          0.58356      0.16744      0.25077  1.0000
  O2          0.83849      0.41622      0.58370  1.0000
  O2          0.57807      0.41506      0.91632  1.0000
  O2          0.42042      0.84068      0.75325  1.0000
  O2          0.16295      0.58091      0.08537  1.0000
  O2          0.41851      0.58575      0.41872  1.0000
  F           0.45221      0.90584      0.25069  1.0000
  F           0.10208      0.55048      0.58398  1.0000
  F           0.42184      0.51812      0.90743  1.0000
  F           0.55595      0.10190      0.75201  1.0000
  F           0.90106      0.45025      0.08400  1.0000
  F           0.54930      0.45535      0.41753  1.0000
