data_cif

_audit_creation_method             'generated by GULP'

_symmetry_space_group_name_H-M     'P 1'
_symmetry_Int_Tables_number        1
_symmetry_cell_setting             triclinic

_cell_length_a                       11.9594
_cell_length_b                       11.9968
_cell_length_c                       29.3790
_cell_angle_alpha                   90.0436
_cell_angle_beta                    90.3979
_cell_angle_gamma                  120.0690

loop_
_atom_site_label
_atom_site_fract_x
_atom_site_fract_y
_atom_site_fract_z
_atom_site_occupancy
  Si          0.69960      0.37570      0.03389  1.0000
  Si          0.62271      0.32773      0.36734  1.0000
  Si          0.68479      0.30314      0.70083  1.0000
  Si          0.30266      0.62419      0.53739  1.0000
  Si          0.37301      0.68438      0.86671  1.0000
  Si          0.32025      0.70207      0.20232  1.0000
  Si          0.37905      0.70635      0.30327  1.0000
  Si          0.31606      0.61606      0.96883  1.0000
  Si          0.29946      0.68127      0.63771  1.0000
  Si          0.63784      0.30811      0.80178  1.0000
  Si          0.67649      0.37635      0.46879  1.0000
  Si          0.69776      0.32053      0.13485  1.0000
  Si          0.52656      0.41030      0.96692  1.0000
  Si          0.58355      0.11719      0.30211  1.0000
  Si          0.89136      0.47554      0.63537  1.0000
  Si          0.46786      0.58128      0.47100  1.0000
  Si          0.42526      0.90408      0.80488  1.0000
  Si          0.10917      0.52695      0.13712  1.0000
  Si          0.41808      0.53475      0.36871  1.0000
  Si          0.10855      0.57772      0.03507  1.0000
  Si          0.47246      0.89306      0.70339  1.0000
  Si          0.58888      0.47183      0.86396  1.0000
  Si          0.88966      0.41896      0.53377  1.0000
  Si          0.52631      0.11183      0.20010  1.0000
  Ge          0.31491      0.41507      0.85864  1.0000
  Si          0.59764      0.90317      0.18672  1.0000
  Si          0.10088      0.69788      0.51968  1.0000
  Si          0.69954      0.60619      0.35505  1.0000
  Si          0.40393      0.10386      0.68867  1.0000
  Si          0.89996      0.29746      0.02009  1.0000
  Si          0.39827      0.30077      0.48304  1.0000
  Si          0.89965      0.59840      0.15051  1.0000
  Si          0.70932      0.10523      0.81772  1.0000
  Si          0.59847      0.69445      0.98329  1.0000
  Si          0.09863      0.40206      0.65255  1.0000
  Si          0.30292      0.90814      0.31735  1.0000
  Si          0.24200      0.32908      0.95428  1.0000
  Si          0.65988      0.91519      0.28755  1.0000
  Si          0.09117      0.75429      0.61989  1.0000
  Si          0.74619      0.65656      0.45646  1.0000
  Si          0.35111      0.10718      0.78962  1.0000
  Si          0.90727      0.24822      0.12123  1.0000
  Si          0.34209      0.25630      0.38161  1.0000
  Si          0.90803      0.65586      0.04965  1.0000
  Si          0.75356      0.09262      0.71673  1.0000
  Si          0.65970      0.75192      0.88162  1.0000
  Si          0.09244      0.34491      0.55144  1.0000
  Si          0.24821      0.91059      0.21633  1.0000
  Si          0.96716      0.11625      0.97099  1.0000
  Si          0.87705      0.85189      0.30234  1.0000
  Si          0.15469      0.03455      0.63735  1.0000
  Ge          0.03007      0.87925      0.46987  1.0000
  Si          0.12899      0.16486      0.80520  1.0000
  Si          0.84448      0.96844      0.13635  1.0000
  Si          0.12377      0.97852      0.36664  1.0000
  Si          0.84542      0.87283      0.03557  1.0000
  Si          0.03295      0.15423      0.70328  1.0000
  Si          0.88459      0.03134      0.86837  1.0000
  Si          0.15356      0.12752      0.53618  1.0000
  Si          0.96666      0.84635      0.20119  1.0000
  O2          0.92229      0.99351      0.00302  1.0000
  O2          0.00316      0.93549      0.33275  1.0000
  O2          0.07496      0.07481      0.67042  1.0000
  O3          0.06663      0.00577      0.50551  1.0000
  O2          0.00617      0.07054      0.83657  1.0000
  O2          0.92521      0.92680      0.16868  1.0000
  O2          0.34181      0.58472      0.33629  1.0000
  O2          0.42067      0.76579      0.67159  1.0000
  O2          0.23414      0.65405      0.00274  1.0000
  O2          0.67911      0.43269      0.83457  1.0000
  O2          0.57410      0.23582      0.16706  1.0000
  O2          0.76338      0.33916      0.50117  1.0000
  O2          0.57768      0.33722      0.00002  1.0000
  O2          0.76554      0.42492      0.66749  1.0000
  O2          0.66121      0.24432      0.33395  1.0000
  O2          0.42445      0.65975      0.50456  1.0000
  O2          0.23486      0.57718      0.17000  1.0000
  O2          0.34513      0.78394      0.83897  1.0000
  O2          0.12044      0.20873      0.97962  1.0000
  O2          0.78699      0.91606      0.30763  1.0000
  O2          0.09014      0.87974      0.64001  1.0000
  O3          0.86726      0.77987      0.47841  1.0000
  O2          0.22924      0.11072      0.81087  1.0000
  O2          0.90783      0.12260      0.14146  1.0000
  O2          0.21615      0.13205      0.36000  1.0000
  O2          0.90947      0.78304      0.02996  1.0000
  O2          0.87831      0.09040      0.69651  1.0000
  O2          0.78610      0.87765      0.86246  1.0000
  O2          0.09358      0.22080      0.53083  1.0000
  O2          0.12102      0.90982      0.19626  1.0000
  O2          0.92372      0.85764      0.25128  1.0000
  O2          0.14581      0.08025      0.58734  1.0000
  O2          0.93221      0.06318      0.92016  1.0000
  O2          0.07229      0.14044      0.75383  1.0000
  O2          0.85651      0.92619      0.08595  1.0000
  O3          0.06753      0.94300      0.41632  1.0000
  O2          0.89595      0.19751      0.98194  1.0000
  O2          0.79679      0.70254      0.31666  1.0000
  O2          0.30600      0.10259      0.65001  1.0000
  O3          0.10724      0.79358      0.48003  1.0000
  O3          0.19959      0.31125      0.81681  1.0000
  O2          0.69290      0.89977      0.14818  1.0000
  O2          0.20637      0.90818      0.35596  1.0000
  O2          0.69325      0.78787      0.02297  1.0000
  O2          0.10045      0.30598      0.69098  1.0000
  O2          0.80700      0.10557      0.85643  1.0000
  O2          0.30362      0.20230      0.52136  1.0000
  O2          0.89756      0.69497      0.18877  1.0000
  O2          0.32091      0.64694      0.25295  1.0000
  O2          0.35975      0.68133      0.58796  1.0000
  O2          0.31774      0.67343      0.91875  1.0000
  O2          0.69096      0.36355      0.75114  1.0000
  O2          0.64085      0.31909      0.08403  1.0000
  O2          0.67833      0.32340      0.41776  1.0000
  O2          0.37072      0.32423      0.97015  1.0000
  O2          0.67105      0.04845      0.30534  1.0000
  O2          0.95892      0.63155      0.63811  1.0000
  O2          0.62358      0.66676      0.47375  1.0000
  O2          0.33970      0.97390      0.80737  1.0000
  O2          0.04008      0.37089      0.13983  1.0000
  O2          0.33167      0.37895      0.36412  1.0000
  O2          0.03992      0.66509      0.03126  1.0000
  O2          0.62860      0.96036      0.69909  1.0000
  O2          0.66925      0.62913      0.86450  1.0000
  O2          0.95973      0.33297      0.53188  1.0000
  O2          0.36962      0.04230      0.19721  1.0000
  O2          0.76748      0.30043      0.01180  1.0000
  O2          0.69776      0.47189      0.34603  1.0000
  O2          0.53961      0.23437      0.67942  1.0000
  O2          0.23589      0.69907      0.51405  1.0000
  O3          0.29773      0.54880      0.84205  1.0000
  O2          0.46284      0.76925      0.17951  1.0000
  O2          0.30445      0.77527      0.32527  1.0000
  O2          0.46232      0.68951      0.98919  1.0000
  O2          0.23100      0.53830      0.65996  1.0000
  O2          0.71401      0.24140      0.82450  1.0000
  O2          0.53248      0.30024      0.49029  1.0000
  O2          0.76561      0.46398      0.15722  1.0000
  O2          0.78008      0.53185      0.02952  1.0000
  O2          0.46666      0.25453      0.36180  1.0000
  O2          0.75662      0.21916      0.69635  1.0000
  O2          0.22036      0.46880      0.53254  1.0000
  O2          0.53019      0.74755      0.86409  1.0000
  O2          0.24544      0.78318      0.19702  1.0000
  O2          0.53538      0.78963      0.30761  1.0000
  O2          0.24952      0.46138      0.97218  1.0000
  O2          0.21790      0.75602      0.64006  1.0000
  O2          0.48233      0.22952      0.80832  1.0000
  O2          0.74845      0.53121      0.47502  1.0000
  O2          0.78090      0.24788      0.14021  1.0000
  O3          0.21277      0.30454      0.90165  1.0000
  O2          0.67506      0.91070      0.23307  1.0000
  O2          0.09200      0.77153      0.56506  1.0000
  O2          0.77152      0.67803      0.40198  1.0000
  O2          0.33349      0.10723      0.73498  1.0000
  O2          0.90438      0.22827      0.06681  1.0000
  O2          0.32365      0.23227      0.43596  1.0000
  O2          0.90591      0.67356      0.10403  1.0000
  O2          0.77584      0.09591      0.77119  1.0000
  O2          0.66852      0.76207      0.93652  1.0000
  O2          0.09379      0.32807      0.60589  1.0000
  O2          0.23100      0.91073      0.27078  1.0000
  O2          0.57803      0.55245      0.98811  1.0000
  O2          0.44317      0.03349      0.32559  1.0000
  O2          0.97426      0.41856      0.65972  1.0000
  O2          0.41077      0.43886      0.49264  1.0000
  O2          0.56823      0.98347      0.82782  1.0000
  O2          0.02438      0.58336      0.15989  1.0000
  O2          0.56073      0.59498      0.34661  1.0000
  O2          0.02641      0.43644      0.01158  1.0000
  O2          0.41350      0.97587      0.68073  1.0000
  O3          0.45345      0.41359      0.83825  1.0000
  O2          0.97424      0.55897      0.51007  1.0000
  O2          0.58339      0.02784      0.17703  1.0000
  O2          0.58142      0.16740      0.25083  1.0000
  O2          0.83700      0.42107      0.58444  1.0000
  O2          0.57856      0.41569      0.91581  1.0000
  O2          0.42245      0.84407      0.75482  1.0000
  O2          0.16233      0.57952      0.08620  1.0000
  O2          0.41421      0.58334      0.42006  1.0000
  F           0.45054      0.90604      0.25134  1.0000
  F           0.09843      0.55369      0.58502  1.0000
  F           0.42166      0.51834      0.90734  1.0000
  F           0.55853      0.10498      0.75316  1.0000
  F           0.90057      0.44967      0.08449  1.0000
  F           0.54809      0.45337      0.41839  1.0000
