data_cif

_audit_creation_method             'generated by GULP'

_symmetry_space_group_name_H-M     'P 1'
_symmetry_Int_Tables_number        1
_symmetry_cell_setting             triclinic

_cell_length_a                       11.9546
_cell_length_b                       11.9894
_cell_length_c                       29.3714
_cell_angle_alpha                   90.0897
_cell_angle_beta                    90.3562
_cell_angle_gamma                  120.0749

loop_
_atom_site_label
_atom_site_fract_x
_atom_site_fract_y
_atom_site_fract_z
_atom_site_occupancy
  Si          0.69960      0.37570      0.03389  1.0000
  Si          0.62147      0.32622      0.36683  1.0000
  Si          0.68513      0.29915      0.69928  1.0000
  Si          0.30177      0.62372      0.53467  1.0000
  Si          0.36887      0.68126      0.86526  1.0000
  Si          0.32185      0.70198      0.20144  1.0000
  Si          0.37910      0.70434      0.30244  1.0000
  Si          0.31528      0.61553      0.96787  1.0000
  Si          0.30092      0.67782      0.63555  1.0000
  Si          0.63667      0.30225      0.80006  1.0000
  Si          0.67952      0.38115      0.46775  1.0000
  Si          0.69909      0.32153      0.13483  1.0000
  Si          0.52685      0.40960      0.96658  1.0000
  Si          0.58353      0.11535      0.30186  1.0000
  Si          0.89265      0.47227      0.63419  1.0000
  Si          0.47281      0.58503      0.46961  1.0000
  Si          0.42268      0.89835      0.80251  1.0000
  Si          0.11022      0.52790      0.13634  1.0000
  Si          0.41734      0.53220      0.36757  1.0000
  Si          0.10798      0.57755      0.03434  1.0000
  Si          0.47292      0.88953      0.70103  1.0000
  Si          0.59149      0.46708      0.86345  1.0000
  Si          0.89215      0.41976      0.53234  1.0000
  Si          0.52806      0.11204      0.19985  1.0000
  Ge          0.31795      0.41431      0.85725  1.0000
  Si          0.59930      0.90324      0.18625  1.0000
  Si          0.10075      0.70029      0.51895  1.0000
  Si          0.69765      0.60363      0.35286  1.0000
  Si          0.40446      0.10052      0.68578  1.0000
  Si          0.89955      0.29684      0.01963  1.0000
  Si          0.40143      0.30438      0.48327  1.0000
  Si          0.90094      0.59978      0.15032  1.0000
  Si          0.70755      0.09894      0.81583  1.0000
  Si          0.59855      0.69555      0.98357  1.0000
  Si          0.10059      0.39888      0.64963  1.0000
  Si          0.30266      0.90609      0.31661  1.0000
  Si          0.24228      0.32827      0.95332  1.0000
  Si          0.66036      0.91368      0.28716  1.0000
  Si          0.09273      0.75127      0.61987  1.0000
  Si          0.75157      0.66212      0.45379  1.0000
  Si          0.35039      0.10286      0.78670  1.0000
  Si          0.90825      0.24886      0.12083  1.0000
  Si          0.34070      0.25412      0.38220  1.0000
  Si          0.90799      0.65626      0.04933  1.0000
  Si          0.75410      0.08861      0.71493  1.0000
  Ge          0.66018      0.75067      0.88034  1.0000
  Si          0.09337      0.34250      0.54835  1.0000
  Si          0.24979      0.91050      0.21556  1.0000
  Si          0.96595      0.11517      0.97000  1.0000
  Si          0.87784      0.85076      0.30228  1.0000
  Si          0.15495      0.03116      0.63513  1.0000
  Si          0.03240      0.88029      0.46871  1.0000
  Si          0.13333      0.16684      0.80270  1.0000
  Si          0.84678      0.96972      0.13618  1.0000
  Si          0.12304      0.97388      0.36756  1.0000
  Si          0.84504      0.87283      0.03550  1.0000
  Si          0.03403      0.15187      0.70105  1.0000
  Si          0.88879      0.03232      0.86658  1.0000
  Si          0.15454      0.12442      0.53397  1.0000
  Si          0.96917      0.84803      0.20116  1.0000
  O2          0.92004      0.99219      0.00206  1.0000
  O2          0.00018      0.93094      0.33498  1.0000
  O2          0.07654      0.07251      0.66837  1.0000
  O2          0.07446      0.00202      0.50139  1.0000
  O2          0.01366      0.08055      0.83598  1.0000
  O2          0.92666      0.92826      0.16902  1.0000
  O2          0.34057      0.58201      0.33529  1.0000
  O2          0.42304      0.76253      0.66910  1.0000
  O2          0.23279      0.65327      0.00159  1.0000
  O2          0.67873      0.42421      0.83400  1.0000
  O2          0.57575      0.23669      0.16717  1.0000
  O2          0.76576      0.34262      0.49974  1.0000
  O2          0.57700      0.33707      0.00036  1.0000
  O2          0.76686      0.42148      0.66627  1.0000
  O2          0.66021      0.24204      0.33395  1.0000
  O2          0.42549      0.66214      0.50231  1.0000
  O2          0.23636      0.57751      0.16892  1.0000
  O2          0.33934      0.77895      0.83655  1.0000
  O2          0.11981      0.20780      0.97812  1.0000
  O2          0.78775      0.91503      0.30724  1.0000
  O2          0.09168      0.87689      0.63990  1.0000
  O2          0.87811      0.78865      0.47407  1.0000
  O2          0.22874      0.10695      0.80786  1.0000
  O2          0.90954      0.12389      0.14134  1.0000
  O2          0.21324      0.12788      0.36206  1.0000
  O2          0.90957      0.78333      0.02948  1.0000
  O2          0.87918      0.08713      0.69456  1.0000
  O3          0.79884      0.88051      0.85917  1.0000
  O2          0.09237      0.21602      0.52796  1.0000
  O2          0.12317      0.91042      0.19526  1.0000
  O2          0.93091      0.86204      0.25181  1.0000
  O2          0.14066      0.07207      0.58466  1.0000
  O2          0.93099      0.06269      0.91916  1.0000
  O2          0.07306      0.13998      0.75184  1.0000
  O2          0.86103      0.92887      0.08578  1.0000
  O2          0.07109      0.93371      0.41812  1.0000
  O2          0.89550      0.19704      0.98136  1.0000
  O2          0.79479      0.69968      0.31425  1.0000
  O2          0.30726      0.10020      0.64681  1.0000
  O2          0.10262      0.79870      0.48048  1.0000
  O3          0.20779      0.31356      0.81374  1.0000
  O2          0.69488      0.90043      0.14767  1.0000
  O2          0.20563      0.90521      0.35516  1.0000
  O2          0.69188      0.78586      0.02462  1.0000
  O2          0.10226      0.30298      0.68810  1.0000
  O2          0.80324      0.09919      0.85514  1.0000
  O2          0.30636      0.20625      0.52183  1.0000
  O2          0.89895      0.69635      0.18873  1.0000
  O2          0.32194      0.64588      0.25193  1.0000
  O2          0.35949      0.68010      0.58527  1.0000
  O2          0.31946      0.67518      0.91797  1.0000
  O2          0.69051      0.35948      0.74958  1.0000
  O2          0.64142      0.31941      0.08410  1.0000
  O2          0.67927      0.32517      0.41709  1.0000
  O2          0.37088      0.32555      0.97044  1.0000
  O2          0.67114      0.04673      0.30511  1.0000
  O2          0.96014      0.62824      0.63764  1.0000
  O2          0.62951      0.67229      0.47225  1.0000
  O2          0.33829      0.96951      0.80447  1.0000
  O2          0.04139      0.37184      0.13902  1.0000
  O2          0.32967      0.37601      0.36398  1.0000
  O2          0.03946      0.66503      0.03060  1.0000
  O2          0.62918      0.95669      0.69702  1.0000
  O3          0.67711      0.62171      0.86454  1.0000
  O2          0.96092      0.33241      0.52934  1.0000
  O2          0.37139      0.04251      0.19675  1.0000
  O2          0.76712      0.30018      0.01157  1.0000
  O2          0.69618      0.46929      0.34452  1.0000
  O2          0.54071      0.23105      0.67715  1.0000
  O2          0.23463      0.69951      0.51178  1.0000
  O3          0.29280      0.54368      0.84192  1.0000
  O2          0.46459      0.76933      0.17869  1.0000
  O2          0.30417      0.77314      0.32430  1.0000
  O2          0.46015      0.68655      0.98930  1.0000
  O2          0.23386      0.53425      0.65729  1.0000
  O2          0.71227      0.23490      0.82252  1.0000
  O2          0.53651      0.30559      0.49020  1.0000
  O2          0.76697      0.46520      0.15712  1.0000
  O2          0.77981      0.53189      0.02943  1.0000
  O2          0.46491      0.25200      0.36201  1.0000
  O2          0.75773      0.21582      0.69494  1.0000
  O2          0.22029      0.46774      0.52918  1.0000
  O3          0.52486      0.74720      0.85969  1.0000
  O2          0.24708      0.78318      0.19611  1.0000
  O2          0.53553      0.78782      0.30703  1.0000
  O2          0.24790      0.46060      0.96989  1.0000
  O2          0.21865      0.75158      0.63997  1.0000
  O2          0.48095      0.22505      0.80587  1.0000
  O2          0.75307      0.53700      0.47302  1.0000
  O2          0.78229      0.24890      0.14010  1.0000
  O3          0.21844      0.30469      0.90036  1.0000
  O2          0.67613      0.90976      0.23265  1.0000
  O2          0.09530      0.77039      0.56535  1.0000
  O2          0.76982      0.67894      0.39927  1.0000
  O2          0.33330      0.10344      0.73201  1.0000
  O2          0.90409      0.22782      0.06639  1.0000
  O2          0.32504      0.23470      0.43665  1.0000
  O2          0.90664      0.67446      0.10376  1.0000
  O2          0.77499      0.08967      0.76943  1.0000
  O3          0.67066      0.77085      0.93887  1.0000
  O2          0.09579      0.32517      0.60278  1.0000
  O2          0.23143      0.90955      0.27000  1.0000
  O2          0.58095      0.55391      0.98600  1.0000
  O2          0.44271      0.03152      0.32507  1.0000
  O2          0.97605      0.41470      0.65766  1.0000
  O2          0.41657      0.44393      0.49240  1.0000
  O2          0.56596      0.97687      0.82552  1.0000
  O2          0.02577      0.58456      0.15936  1.0000
  O2          0.55812      0.59030      0.34410  1.0000
  O2          0.02610      0.43582      0.01108  1.0000
  O2          0.41450      0.97258      0.67802  1.0000
  O3          0.45663      0.41359      0.83730  1.0000
  O2          0.97545      0.56084      0.50923  1.0000
  O2          0.58549      0.02832      0.17670  1.0000
  O2          0.58248      0.16671      0.25070  1.0000
  O2          0.83887      0.41946      0.58310  1.0000
  O2          0.57617      0.40959      0.91547  1.0000
  O2          0.42145      0.83952      0.75230  1.0000
  O2          0.16288      0.58035      0.08535  1.0000
  O2          0.41801      0.58466      0.41868  1.0000
  F           0.45160      0.90519      0.25064  1.0000
  F           0.10029      0.55055      0.58350  1.0000
  F           0.42824      0.52373      0.90554  1.0000
  F           0.55837      0.10101      0.75088  1.0000
  F           0.90112      0.45010      0.08406  1.0000
  F           0.54938      0.45439      0.41729  1.0000
