data_cif

_audit_creation_method             'generated by GULP'

_symmetry_space_group_name_H-M     'P 1'
_symmetry_Int_Tables_number        1
_symmetry_cell_setting             triclinic

_cell_length_a                       11.9763
_cell_length_b                       11.9952
_cell_length_c                       29.3855
_cell_angle_alpha                   90.0681
_cell_angle_beta                    90.4529
_cell_angle_gamma                  120.2150

loop_
_atom_site_label
_atom_site_fract_x
_atom_site_fract_y
_atom_site_fract_z
_atom_site_occupancy
  Si          0.69960      0.37570      0.03389  1.0000
  Si          0.62250      0.32686      0.36702  1.0000
  Si          0.68325      0.30502      0.70013  1.0000
  Si          0.30163      0.62296      0.53476  1.0000
  Si          0.37440      0.68339      0.86607  1.0000
  Si          0.32197      0.70257      0.20164  1.0000
  Si          0.37969      0.70495      0.30255  1.0000
  Si          0.31642      0.61581      0.96819  1.0000
  Si          0.30213      0.68146      0.63509  1.0000
  Si          0.64050      0.30822      0.80145  1.0000
  Si          0.68074      0.38160      0.46806  1.0000
  Si          0.69958      0.32151      0.13483  1.0000
  Si          0.52608      0.40919      0.96687  1.0000
  Si          0.58448      0.11593      0.30208  1.0000
  Si          0.89145      0.47359      0.63465  1.0000
  Si          0.47350      0.58577      0.46947  1.0000
  Si          0.42725      0.90270      0.80359  1.0000
  Si          0.11045      0.52827      0.13644  1.0000
  Si          0.41835      0.53277      0.36743  1.0000
  Si          0.10925      0.57866      0.03441  1.0000
  Si          0.46887      0.89247      0.70183  1.0000
  Si          0.59019      0.47018      0.86397  1.0000
  Si          0.89222      0.41856      0.53306  1.0000
  Si          0.52874      0.11249      0.20007  1.0000
  Ge          0.31660      0.41403      0.85828  1.0000
  Si          0.59949      0.90369      0.18661  1.0000
  Si          0.10027      0.69892      0.51828  1.0000
  Si          0.69822      0.60416      0.35298  1.0000
  Si          0.40185      0.10507      0.68851  1.0000
  Si          0.89970      0.29792      0.01995  1.0000
  Si          0.40273      0.30536      0.48286  1.0000
  Si          0.90178      0.60014      0.15035  1.0000
  Si          0.71270      0.10504      0.81564  1.0000
  Si          0.59856      0.69390      0.98319  1.0000
  Si          0.10132      0.40367      0.65125  1.0000
  Si          0.30347      0.90648      0.31675  1.0000
  Si          0.24173      0.32817      0.95377  1.0000
  Si          0.66117      0.91437      0.28745  1.0000
  Si          0.09296      0.75159      0.61892  1.0000
  Si          0.75196      0.66256      0.45390  1.0000
  Si          0.35378      0.10672      0.78997  1.0000
  Si          0.90826      0.24883      0.12096  1.0000
  Si          0.34191      0.25463      0.38191  1.0000
  Si          0.90894      0.65636      0.04940  1.0000
  Si          0.75006      0.09318      0.71420  1.0000
  Si          0.66047      0.75042      0.88160  1.0000
  Si          0.09294      0.34153      0.55039  1.0000
  Si          0.25024      0.91101      0.21573  1.0000
  Si          0.96607      0.11614      0.97108  1.0000
  Si          0.87829      0.85121      0.30226  1.0000
  Si          0.15427      0.03070      0.63506  1.0000
  Si          0.03315      0.88048      0.46849  1.0000
  Si          0.13144      0.16109      0.80644  1.0000
  Si          0.84618      0.96908      0.13640  1.0000
  Si          0.12392      0.97403      0.36741  1.0000
  Si          0.84565      0.87262      0.03565  1.0000
  Ge          0.03242      0.15270      0.70269  1.0000
  Si          0.88520      0.03000      0.86836  1.0000
  Si          0.15625      0.12497      0.53386  1.0000
  Si          0.96964      0.84844      0.20123  1.0000
  O2          0.92215      0.99413      0.00341  1.0000
  O2          0.00129      0.93139      0.33473  1.0000
  O3          0.06793      0.06441      0.66562  1.0000
  O2          0.07589      0.00307      0.50085  1.0000
  O2          0.00952      0.06833      0.83846  1.0000
  O2          0.92709      0.92856      0.16907  1.0000
  O2          0.34136      0.58236      0.33525  1.0000
  O2          0.42230      0.76744      0.66924  1.0000
  O2          0.23447      0.65421      0.00185  1.0000
  O2          0.68138      0.43188      0.83487  1.0000
  O2          0.57653      0.23694      0.16726  1.0000
  O2          0.76588      0.34206      0.50019  1.0000
  O2          0.57706      0.33661      0.00023  1.0000
  O2          0.76563      0.42608      0.66656  1.0000
  O2          0.66121      0.24270      0.33422  1.0000
  O2          0.42458      0.66118      0.50217  1.0000
  O2          0.23646      0.57799      0.16909  1.0000
  O2          0.34778      0.78309      0.83798  1.0000
  O2          0.11972      0.20833      0.97912  1.0000
  O2          0.78858      0.91563      0.30736  1.0000
  O2          0.09382      0.87686      0.63923  1.0000
  O2          0.87887      0.78928      0.47410  1.0000
  O2          0.23349      0.10952      0.81275  1.0000
  O2          0.90947      0.12352      0.14114  1.0000
  O2          0.21440      0.12811      0.36178  1.0000
  O2          0.90985      0.78325      0.02966  1.0000
  O3          0.86926      0.08882      0.69254  1.0000
  O2          0.78655      0.87622      0.86226  1.0000
  O2          0.09224      0.21531      0.52993  1.0000
  O2          0.12368      0.91115      0.19557  1.0000
  O2          0.93058      0.86205      0.25174  1.0000
  O2          0.14729      0.07192      0.58392  1.0000
  O2          0.92796      0.06181      0.92055  1.0000
  O3          0.07142      0.12779      0.75575  1.0000
  O2          0.85754      0.92525      0.08620  1.0000
  O2          0.07158      0.93366      0.41788  1.0000
  O2          0.89547      0.19774      0.98189  1.0000
  O2          0.79522      0.70015      0.31437  1.0000
  O2          0.30479      0.10576      0.65001  1.0000
  O2          0.10214      0.79752      0.47985  1.0000
  O3          0.20181      0.30908      0.81627  1.0000
  O2          0.69472      0.90034      0.14817  1.0000
  O2          0.20641      0.90543      0.35518  1.0000
  O2          0.69334      0.78736      0.02300  1.0000
  O3          0.10784      0.31553      0.69091  1.0000
  O2          0.81052      0.10533      0.85421  1.0000
  O2          0.30733      0.20777      0.52125  1.0000
  O2          0.89977      0.69671      0.18870  1.0000
  O2          0.32209      0.64637      0.25208  1.0000
  O2          0.36077      0.68294      0.58496  1.0000
  O2          0.31884      0.67297      0.91800  1.0000
  O2          0.69184      0.36514      0.75077  1.0000
  O2          0.64174      0.31936      0.08411  1.0000
  O2          0.68013      0.32595      0.41733  1.0000
  O2          0.37013      0.32320      0.96989  1.0000
  O2          0.67203      0.04747      0.30538  1.0000
  O2          0.96018      0.62967      0.63710  1.0000
  O2          0.63024      0.67302      0.47235  1.0000
  O2          0.34286      0.97325      0.80700  1.0000
  O2          0.04138      0.37208      0.13923  1.0000
  O2          0.33074      0.37642      0.36374  1.0000
  O2          0.04052      0.66584      0.03070  1.0000
  O2          0.62410      0.96058      0.69771  1.0000
  O2          0.67047      0.62776      0.86472  1.0000
  O2          0.96079      0.33113      0.53076  1.0000
  O2          0.37213      0.04302      0.19696  1.0000
  O2          0.76715      0.30046      0.01167  1.0000
  O2          0.69710      0.47003      0.34474  1.0000
  O2          0.53729      0.23657      0.67944  1.0000
  O2          0.23337      0.69692      0.51136  1.0000
  O3          0.29902      0.54734      0.84145  1.0000
  O2          0.46457      0.76981      0.17895  1.0000
  O2          0.30494      0.77355      0.32445  1.0000
  O2          0.46258      0.68920      0.98878  1.0000
  O2          0.23548      0.53908      0.65722  1.0000
  O2          0.71695      0.24095      0.82331  1.0000
  O2          0.53743      0.30643      0.49014  1.0000
  O2          0.76777      0.46538      0.15707  1.0000
  O2          0.78040      0.53206      0.02947  1.0000
  O2          0.46605      0.25260      0.36191  1.0000
  O2          0.75374      0.22081      0.69463  1.0000
  O2          0.22057      0.46645      0.53117  1.0000
  O2          0.53134      0.74594      0.86378  1.0000
  O2          0.24730      0.78366      0.19627  1.0000
  O2          0.53612      0.78853      0.30726  1.0000
  O2          0.24959      0.46092      0.97144  1.0000
  O2          0.21985      0.75445      0.63888  1.0000
  O2          0.48534      0.22932      0.80847  1.0000
  O2          0.75370      0.53760      0.47319  1.0000
  O2          0.78243      0.24876      0.14011  1.0000
  O3          0.21320      0.30322      0.90112  1.0000
  O2          0.67649      0.91045      0.23297  1.0000
  O2          0.09469      0.76950      0.56440  1.0000
  O2          0.77023      0.67967      0.39943  1.0000
  O2          0.33331      0.10850      0.73539  1.0000
  O2          0.90433      0.22848      0.06655  1.0000
  O2          0.32628      0.23513      0.43629  1.0000
  O2          0.90785      0.67483      0.10378  1.0000
  O2          0.77942      0.09919      0.76867  1.0000
  O2          0.66904      0.76135      0.93648  1.0000
  O2          0.09342      0.32431      0.60506  1.0000
  O2          0.23228      0.90996      0.27015  1.0000
  O2          0.57753      0.55161      0.98799  1.0000
  O2          0.44373      0.03197      0.32523  1.0000
  O2          0.97576      0.41819      0.65875  1.0000
  O2          0.41731      0.44456      0.49204  1.0000
  O2          0.57200      0.98148      0.82531  1.0000
  O2          0.02638      0.58499      0.15944  1.0000
  O2          0.55895      0.59086      0.34399  1.0000
  O2          0.02634      0.43688      0.01115  1.0000
  O2          0.40952      0.97614      0.68026  1.0000
  O3          0.45509      0.41246      0.83805  1.0000
  O2          0.97506      0.55875      0.50918  1.0000
  O2          0.58602      0.02884      0.17699  1.0000
  O2          0.58342      0.16728      0.25092  1.0000
  O2          0.83822      0.41882      0.58362  1.0000
  O2          0.57848      0.41400      0.91589  1.0000
  O2          0.41969      0.84206      0.75326  1.0000
  O2          0.16330      0.58096      0.08551  1.0000
  O2          0.41923      0.58558      0.41849  1.0000
  F           0.45212      0.90560      0.25082  1.0000
  F           0.09970      0.54987      0.58388  1.0000
  F           0.42240      0.51716      0.90701  1.0000
  F           0.55909      0.10570      0.75229  1.0000
  F           0.90147      0.45029      0.08411  1.0000
  F           0.55011      0.45528      0.41717  1.0000
