data_cif

_audit_creation_method             'generated by GULP'

_symmetry_space_group_name_H-M     'P 1'
_symmetry_Int_Tables_number        1
_symmetry_cell_setting             triclinic

_cell_length_a                       11.9753
_cell_length_b                       11.9815
_cell_length_c                       29.3828
_cell_angle_alpha                   90.1593
_cell_angle_beta                    90.2906
_cell_angle_gamma                  120.0706

loop_
_atom_site_label
_atom_site_fract_x
_atom_site_fract_y
_atom_site_fract_z
_atom_site_occupancy
  Si          0.69960      0.37570      0.03389  1.0000
  Si          0.62809      0.33074      0.36791  1.0000
  Si          0.68657      0.30270      0.70096  1.0000
  Si          0.30207      0.62533      0.53631  1.0000
  Si          0.37486      0.68412      0.86623  1.0000
  Si          0.32087      0.70401      0.20173  1.0000
  Si          0.38144      0.70567      0.30216  1.0000
  Si          0.31693      0.61685      0.96836  1.0000
  Si          0.30193      0.68067      0.63714  1.0000
  Si          0.63849      0.30689      0.80180  1.0000
  Si          0.68018      0.38097      0.46938  1.0000
  Si          0.69855      0.32169      0.13494  1.0000
  Si          0.52646      0.41000      0.96718  1.0000
  Si          0.58651      0.11958      0.30233  1.0000
  Si          0.89415      0.47507      0.63588  1.0000
  Si          0.47310      0.58635      0.47108  1.0000
  Si          0.42681      0.90308      0.80402  1.0000
  Si          0.11009      0.52884      0.13627  1.0000
  Si          0.42394      0.53966      0.36877  1.0000
  Si          0.10877      0.57858      0.03424  1.0000
  Si          0.47500      0.89277      0.70253  1.0000
  Si          0.58956      0.47061      0.86424  1.0000
  Si          0.89259      0.42081      0.53406  1.0000
  Si          0.52706      0.11406      0.20055  1.0000
  Ge          0.31622      0.41416      0.85862  1.0000
  Si          0.59825      0.90552      0.18573  1.0000
  Si          0.10113      0.70136      0.52041  1.0000
  Si          0.70374      0.60894      0.35550  1.0000
  Si          0.40634      0.10385      0.68809  1.0000
  Si          0.89999      0.29793      0.01969  1.0000
  Si          0.40161      0.30422      0.48349  1.0000
  Si          0.90091      0.60023      0.14990  1.0000
  Si          0.71047      0.10406      0.81731  1.0000
  Si          0.59862      0.69485      0.98327  1.0000
  Si          0.10161      0.40147      0.65158  1.0000
  Si          0.30742      0.90819      0.31806  1.0000
  Si          0.24253      0.32916      0.95427  1.0000
  Si          0.66058      0.91632      0.28641  1.0000
  Si          0.09414      0.75407      0.62125  1.0000
  Si          0.75180      0.66227      0.45685  1.0000
  Si          0.35222      0.10606      0.78904  1.0000
  Si          0.90808      0.24971      0.12082  1.0000
  Si          0.34873      0.26170      0.38200  1.0000
  Si          0.90818      0.65634      0.04904  1.0000
  Si          0.75574      0.09223      0.71634  1.0000
  Si          0.66078      0.75139      0.88161  1.0000
  Si          0.09401      0.34436      0.55032  1.0000
  Si          0.24922      0.91311      0.21761  1.0000
  Si          0.96755      0.11669      0.97063  1.0000
  Si          0.87748      0.85373      0.30219  1.0000
  Si          0.15740      0.03477      0.63724  1.0000
  Si          0.03006      0.88063      0.47180  1.0000
  Si          0.13026      0.16392      0.80489  1.0000
  Si          0.84568      0.96989      0.13603  1.0000
  Ge          0.12628      0.97836      0.36868  1.0000
  Si          0.84556      0.87332      0.03526  1.0000
  Si          0.03508      0.15429      0.70295  1.0000
  Si          0.88586      0.03074      0.86803  1.0000
  Si          0.15606      0.12680      0.53602  1.0000
  Si          0.96801      0.84840      0.20109  1.0000
  O2          0.92201      0.99383      0.00263  1.0000
  O3          1.00000      0.94136      0.33242  1.0000
  O2          0.07757      0.07485      0.67026  1.0000
  O2          0.07324      0.00141      0.50525  1.0000
  O2          0.00724      0.06950      0.83618  1.0000
  O2          0.92622      0.92872      0.16860  1.0000
  O2          0.34579      0.58560      0.33571  1.0000
  O2          0.42418      0.76561      0.67055  1.0000
  O2          0.23425      0.65498      0.00190  1.0000
  O2          0.67961      0.43107      0.83492  1.0000
  O2          0.57531      0.23817      0.16747  1.0000
  O2          0.76600      0.34261      0.50163  1.0000
  O2          0.57721      0.33692      0.00036  1.0000
  O2          0.76849      0.42489      0.66792  1.0000
  O2          0.66559      0.24642      0.33440  1.0000
  O2          0.42543      0.66276      0.50399  1.0000
  O2          0.23586      0.58000      0.16898  1.0000
  O2          0.34680      0.78288      0.83808  1.0000
  O2          0.12052      0.20919      0.97957  1.0000
  O2          0.78584      0.91600      0.30660  1.0000
  O2          0.09358      0.88018      0.64112  1.0000
  O2          0.87656      0.78696      0.47868  1.0000
  O2          0.22998      0.10911      0.81017  1.0000
  O2          0.90911      0.12429      0.14106  1.0000
  O3          0.22397      0.14106      0.36029  1.0000
  O2          0.90911      0.78317      0.02922  1.0000
  O2          0.88068      0.09050      0.69613  1.0000
  O2          0.78753      0.87674      0.86245  1.0000
  O2          0.09386      0.21828      0.52987  1.0000
  O2          0.12265      0.91274      0.19731  1.0000
  O2          0.92417      0.85774      0.25112  1.0000
  O2          0.14690      0.07957      0.58714  1.0000
  O2          0.93375      0.06383      0.91975  1.0000
  O2          0.07373      0.14084      0.75357  1.0000
  O2          0.85817      0.92688      0.08574  1.0000
  O3          0.06208      0.93660      0.42181  1.0000
  O2          0.89604      0.19780      0.98150  1.0000
  O2          0.80138      0.70444      0.31717  1.0000
  O2          0.30893      0.10340      0.64942  1.0000
  O2          0.10223      0.79947      0.48185  1.0000
  O3          0.20117      0.31031      0.81679  1.0000
  O2          0.69380      0.90204      0.14729  1.0000
  O3          0.21341      0.90294      0.35778  1.0000
  O2          0.69329      0.78857      0.02296  1.0000
  O2          0.10337      0.30574      0.69013  1.0000
  O2          0.80790      0.10445      0.85600  1.0000
  O2          0.30618      0.20610      0.52185  1.0000
  O2          0.89956      0.69728      0.18814  1.0000
  O2          0.32329      0.64676      0.25179  1.0000
  O2          0.36001      0.68247      0.58680  1.0000
  O2          0.31941      0.67400      0.91822  1.0000
  O2          0.69217      0.36306      0.75128  1.0000
  O2          0.64157      0.31963      0.08414  1.0000
  O2          0.68272      0.32713      0.41850  1.0000
  O2          0.37075      0.32410      0.97038  1.0000
  O2          0.67300      0.04994      0.30468  1.0000
  O2          0.96180      0.63119      0.63915  1.0000
  O2          0.62935      0.67217      0.47470  1.0000
  O2          0.34104      0.97267      0.80661  1.0000
  O2          0.04099      0.37263      0.13921  1.0000
  O2          0.33789      0.38429      0.36500  1.0000
  O2          0.03992      0.66578      0.03050  1.0000
  O2          0.63101      0.96007      0.69849  1.0000
  O2          0.67009      0.62808      0.86472  1.0000
  O2          0.96162      0.33368      0.53123  1.0000
  O2          0.37052      0.04469      0.19820  1.0000
  O2          0.76732      0.30032      0.01164  1.0000
  O2          0.70344      0.47512      0.34676  1.0000
  O2          0.54204      0.23466      0.67921  1.0000
  O2          0.23494      0.70077      0.51316  1.0000
  O3          0.29966      0.54805      0.84175  1.0000
  O2          0.46283      0.77234      0.17850  1.0000
  O2          0.30731      0.77414      0.32430  1.0000
  O2          0.46271      0.69031      0.98898  1.0000
  O2          0.23471      0.53712      0.65896  1.0000
  O2          0.71455      0.24003      0.82434  1.0000
  O2          0.53637      0.30525      0.49100  1.0000
  O2          0.76713      0.46581      0.15697  1.0000
  O2          0.78010      0.53192      0.02923  1.0000
  O2          0.47258      0.25817      0.36226  1.0000
  O2          0.75867      0.21901      0.69626  1.0000
  O2          0.22080      0.46931      0.53106  1.0000
  O2          0.53185      0.74726      0.86383  1.0000
  O2          0.24536      0.78479      0.19827  1.0000
  O2          0.53716      0.78966      0.30617  1.0000
  O2          0.25022      0.46200      0.97191  1.0000
  O2          0.21991      0.75460      0.64137  1.0000
  O2          0.48304      0.22832      0.80803  1.0000
  O2          0.75273      0.53642      0.47548  1.0000
  O2          0.78196      0.24930      0.14008  1.0000
  O3          0.21388      0.30399      0.90164  1.0000
  O2          0.67558      0.91272      0.23190  1.0000
  O2          0.09619      0.77230      0.56671  1.0000
  O2          0.77445      0.68213      0.40244  1.0000
  O2          0.33535      0.10653      0.73439  1.0000
  O2          0.90470      0.22904      0.06641  1.0000
  O2          0.32838      0.23460      0.43638  1.0000
  O2          0.90656      0.67488      0.10340  1.0000
  O2          0.77729      0.09506      0.77080  1.0000
  O2          0.66898      0.76212      0.93651  1.0000
  O2          0.09635      0.32737      0.60475  1.0000
  O2          0.23309      0.91462      0.27231  1.0000
  O2          0.57781      0.55256      0.98825  1.0000
  O2          0.44697      0.03499      0.32616  1.0000
  O2          0.97744      0.41775      0.65949  1.0000
  O2          0.41473      0.44324      0.49243  1.0000
  O2          0.56939      0.98209      0.82710  1.0000
  O2          0.02581      0.58574      0.15908  1.0000
  O2          0.56590      0.59848      0.34642  1.0000
  O2          0.02627      0.43692      0.01090  1.0000
  O2          0.41652      0.97605      0.67991  1.0000
  O3          0.45448      0.41207      0.83846  1.0000
  O2          0.97605      0.56163      0.51074  1.0000
  O2          0.58375      0.03040      0.17678  1.0000
  O2          0.58310      0.17002      0.25120  1.0000
  O2          0.84015      0.42151      0.58487  1.0000
  O2          0.57871      0.41476      0.91613  1.0000
  O2          0.42436      0.84337      0.75389  1.0000
  O2          0.16286      0.58082      0.08530  1.0000
  O2          0.42237      0.59089      0.41994  1.0000
  F           0.45118      0.90827      0.25133  1.0000
  F           0.10121      0.55291      0.58502  1.0000
  F           0.42263      0.51805      0.90732  1.0000
  F           0.56015      0.10455      0.75268  1.0000
  F           0.90139      0.45070      0.08399  1.0000
  F           0.55240      0.45709      0.41869  1.0000
