data_cif

_audit_creation_method             'generated by GULP'

_symmetry_space_group_name_H-M     'P 1'
_symmetry_Int_Tables_number        1
_symmetry_cell_setting             triclinic

_cell_length_a                       12.0207
_cell_length_b                       11.9442
_cell_length_c                       29.5259
_cell_angle_alpha                   90.0003
_cell_angle_beta                    90.0000
_cell_angle_gamma                  120.5832

loop_
_atom_site_label
_atom_site_fract_x
_atom_site_fract_y
_atom_site_fract_z
_atom_site_occupancy
  Si          0.69960      0.37570      0.03389  1.0000
  Si          0.61148      0.32166      0.36697  1.0000
  Si          0.65053      0.27738      0.70047  1.0000
  Si          0.26666      0.60410      0.53388  1.0000
  Si          0.35481      0.65816      0.86697  1.0000
  Si          0.31577      0.70245      0.20047  1.0000
  Si          0.36956      0.70227      0.30071  1.0000
  Si          0.30425      0.61266      0.96994  1.0000
  Si          0.26956      0.65805      0.63408  1.0000
  Si          0.59674      0.27754      0.80071  1.0000
  Si          0.66203      0.36717      0.46995  1.0000
  Si          0.69674      0.32177      0.13409  1.0000
  Si          0.51538      0.39660      0.96973  1.0000
  Si          0.57285      0.11125      0.30125  1.0000
  Si          0.86105      0.44710      0.63535  1.0000
  Si          0.45089      0.58322      0.46973  1.0000
  Si          0.39345      0.86857      0.80125  1.0000
  Si          0.10525      0.53273      0.13534  1.0000
  Si          0.40551      0.53008      0.36597  1.0000
  Si          0.10544      0.58859      0.03442  1.0000
  Si          0.44256      0.86686      0.69988  1.0000
  Si          0.56078      0.44973      0.86598  1.0000
  Si          0.86083      0.39122      0.53443  1.0000
  Si          0.52375      0.11297      0.19988  1.0000
  Si          0.27522      0.37515      0.84921  1.0000
  Si          0.59558      0.90389      0.18588  1.0000
  Si          0.06425      0.67717      0.51790  1.0000
  Si          0.69108      0.60467      0.34921  1.0000
  Si          0.37073      0.07594      0.68588  1.0000
  Si          0.90202      0.30264      0.01790  1.0000
  Si          0.38093      0.29675      0.48389  1.0000
  Si          0.89644      0.60222      0.14947  1.0000
  Si          0.67538      0.07812      0.81528  1.0000
  Si          0.58535      0.68308      0.98389  1.0000
  Si          0.06986      0.37761      0.64947  1.0000
  Si          0.29091      0.90170      0.31528  1.0000
  Ge          0.25242      0.34464      0.94921  1.0000
  Si          0.65210      0.91183      0.28654  1.0000
  Si          0.06087      0.72825      0.61877  1.0000
  Ge          0.71386      0.63518      0.44921  1.0000
  Si          0.31420      0.06799      0.78654  1.0000
  Si          0.90543      0.25158      0.11877  1.0000
  Si          0.32485      0.24706      0.38182  1.0000
  Si          0.90285      0.66133      0.04925  1.0000
  Si          0.72333      0.06862      0.71468  1.0000
  Si          0.64145      0.73276      0.88182  1.0000
  Si          0.06342      0.31847      0.54925  1.0000
  Si          0.24297      0.91121      0.21468  1.0000
  Si          0.96527      0.11942      0.96627  1.0000
  Si          0.86898      0.85029      0.29883  1.0000
  Si          0.12501      0.00956      0.63365  1.0000
  Si          0.00101      0.86040      0.46627  1.0000
  Si          0.09732      0.12952      0.79883  1.0000
  Si          0.84129      0.97027      0.13365  1.0000
  Si          0.10729      0.96241      0.36657  1.0000
  Si          0.83548      0.87435      0.03262  1.0000
  Si          0.00154      0.12783      0.69881  1.0000
  Si          0.85901      0.01740      0.86657  1.0000
  Si          0.13080      0.10547      0.53262  1.0000
  Si          0.96476      0.85200      0.19881  1.0000
  O2          0.90768      0.99293      0.99867  1.0000
  O2          0.98931      0.92360      0.33258  1.0000
  O2          0.04194      0.05063      0.66453  1.0000
  O2          0.05861      0.98688      0.49867  1.0000
  O2          0.97699      0.05621      0.83258  1.0000
  O2          0.92436      0.92920      0.16453  1.0000
  O2          0.32957      0.57785      0.33336  1.0000
  O2          0.39270      0.74195      0.66705  1.0000
  O2          0.23166      0.66710      0.00198  1.0000
  O2          0.63672      0.40196      0.83337  1.0000
  O2          0.57360      0.23788      0.16706  1.0000
  O2          0.73461      0.31272      0.50199  1.0000
  O2          0.57796      0.33099      0.00032  1.0000
  O2          0.73604      0.40067      0.66774  1.0000
  O2          0.64794      0.23671      0.33434  1.0000
  O2          0.38830      0.64881      0.50031  1.0000
  O2          0.23027      0.57917      0.16773  1.0000
  O2          0.31836      0.74311      0.83433  1.0000
  O3          0.11469      0.20010      0.97110  1.0000
  O2          0.77969      0.91456      0.30613  1.0000
  O2          0.06043      0.85436      0.63904  1.0000
  O3          0.85158      0.77973      0.47110  1.0000
  O2          0.18660      0.06525      0.80613  1.0000
  O2          0.90587      0.12547      0.13904  1.0000
  O2          0.20028      0.11919      0.36193  1.0000
  O2          0.90188      0.78644      0.02858  1.0000
  O2          0.84711      0.06594      0.69410  1.0000
  O2          0.76601      0.86062      0.86193  1.0000
  O2          0.06438      0.19337      0.52858  1.0000
  O2          0.11919      0.91389      0.19411  1.0000
  O2          0.92549      0.87214      0.24856  1.0000
  O2          0.11933      0.05051      0.58274  1.0000
  O2          0.91176      0.06057      0.91650  1.0000
  O2          0.04081      0.10769      0.74856  1.0000
  O2          0.84697      0.92931      0.08275  1.0000
  O2          0.05454      0.91925      0.41650  1.0000
  O2          0.90238      0.20867      0.97877  1.0000
  O2          0.78047      0.69537      0.30732  1.0000
  O2          0.27543      0.07941      0.64777  1.0000
  O2          0.06388      0.77113      0.47877  1.0000
  O2          0.18582      0.28445      0.80732  1.0000
  O2          0.69088      0.90043      0.14778  1.0000
  O2          0.19204      0.89706      0.35360  1.0000
  O2          0.68290      0.78313      0.02147  1.0000
  O2          0.07180      0.28143      0.68816  1.0000
  O2          0.77425      0.08275      0.85360  1.0000
  O2          0.28337      0.19670      0.52146  1.0000
  O2          0.89450      0.69840      0.18816  1.0000
  O2          0.31268      0.64377      0.25066  1.0000
  O2          0.32711      0.65993      0.58396  1.0000
  O2          0.30377      0.65980      0.91772  1.0000
  O2          0.65362      0.33606      0.75067  1.0000
  O2          0.63916      0.31988      0.08397  1.0000
  O2          0.66252      0.32004      0.41773  1.0000
  O3          0.36346      0.30623      0.97451  1.0000
  O2          0.66056      0.04371      0.30530  1.0000
  O2          0.93012      0.60434      0.63815  1.0000
  O3          0.60282      0.67360      0.47450  1.0000
  O2          0.30573      0.93611      0.80529  1.0000
  O2          0.03618      0.37549      0.13815  1.0000
  O2          0.31996      0.37227      0.36392  1.0000
  O2          0.03745      0.67610      0.03174  1.0000
  O2          0.59873      0.93495      0.69726  1.0000
  O2          0.64633      0.60755      0.86393  1.0000
  O2          0.92881      0.30370      0.53174  1.0000
  O2          0.36757      0.04488      0.19727  1.0000
  O2          0.76708      0.30059      0.01203  1.0000
  O2          0.68592      0.46601      0.34504  1.0000
  O2          0.50658      0.21024      0.67876  1.0000
  O2          0.19918      0.67921      0.51203  1.0000
  O2          0.28037      0.51381      0.84504  1.0000
  O2          0.45972      0.76960      0.17876  1.0000
  O2          0.29413      0.76920      0.32319  1.0000
  O2          0.45191      0.68328      0.98915  1.0000
  O2          0.20240      0.51460      0.65721  1.0000
  O2          0.67216      0.21062      0.82320  1.0000
  O2          0.51436      0.29655      0.48916  1.0000
  O2          0.76390      0.46523      0.15721  1.0000
  O2          0.77821      0.53329      0.02904  1.0000
  O2          0.45627      0.25655      0.36480  1.0000
  O2          0.72288      0.19439      0.69523  1.0000
  O2          0.18805      0.44651      0.52904  1.0000
  O2          0.51003      0.72327      0.86480  1.0000
  O2          0.24343      0.78544      0.19523  1.0000
  O2          0.52612      0.78353      0.30600  1.0000
  O3          0.22375      0.45912      0.97716  1.0000
  O2          0.18897      0.73312      0.63803  1.0000
  O2          0.44018      0.19629      0.80600  1.0000
  O3          0.74253      0.52071      0.47717  1.0000
  O2          0.77733      0.24670      0.13803  1.0000
  O3          0.19799      0.29412      0.89250  1.0000
  O2          0.66961      0.91005      0.23238  1.0000
  O2          0.05863      0.74540      0.56465  1.0000
  O3          0.76830      0.68571      0.39250  1.0000
  O2          0.29670      0.06977      0.73238  1.0000
  O2          0.90765      0.23442      0.06465  1.0000
  O2          0.31262      0.23580      0.43592  1.0000
  O2          0.89925      0.67789      0.10350  1.0000
  O2          0.74484      0.07400      0.76885  1.0000
  O2          0.65366      0.74403      0.93593  1.0000
  O2          0.06703      0.30193      0.60350  1.0000
  O2          0.22145      0.90583      0.26886  1.0000
  O2          0.56590      0.54106      0.99125  1.0000
  O2          0.43033      0.03004      0.32407  1.0000
  O2          0.94332      0.38864      0.65853  1.0000
  O2          0.40038      0.43877      0.49125  1.0000
  O2          0.53597      0.94977      0.82406  1.0000
  O2          0.02299      0.59120      0.15853  1.0000
  O2          0.54698      0.58337      0.34403  1.0000
  O2          0.02228      0.44772      0.01053  1.0000
  O2          0.38572      0.95115      0.67717  1.0000
  O2          0.41932      0.39645      0.84403  1.0000
  O2          0.94399      0.53209      0.51053  1.0000
  O2          0.58058      0.02869      0.17717  1.0000
  O2          0.57710      0.16700      0.25067  1.0000
  O2          0.80685      0.39159      0.58492  1.0000
  O2          0.56135      0.40058      0.91704  1.0000
  O2          0.38920      0.81283      0.75066  1.0000
  O2          0.15943      0.58823      0.08492  1.0000
  O2          0.40494      0.57924      0.41704  1.0000
  F           0.44454      0.90431      0.25181  1.0000
  F           0.06865      0.52471      0.58526  1.0000
  F           0.39790      0.49328      0.92266  1.0000
  F           0.52176      0.07552      0.75181  1.0000
  F           0.89764      0.45510      0.08526  1.0000
  F           0.56839      0.48654      0.42266  1.0000
