data_cif

_audit_creation_method             'generated by GULP'

_symmetry_space_group_name_H-M     'P 1'
_symmetry_Int_Tables_number        1
_symmetry_cell_setting             triclinic

_cell_length_a                       11.9864
_cell_length_b                       11.9639
_cell_length_c                       29.4903
_cell_angle_alpha                   89.6065
_cell_angle_beta                    89.9051
_cell_angle_gamma                  120.2303

loop_
_atom_site_label
_atom_site_fract_x
_atom_site_fract_y
_atom_site_fract_z
_atom_site_occupancy
  Si          0.69960      0.37570      0.03389  1.0000
  Si          0.60627      0.31816      0.36639  1.0000
  Si          0.65316      0.28308      0.69949  1.0000
  Si          0.27917      0.60953      0.53510  1.0000
  Si          0.35536      0.66167      0.86774  1.0000
  Si          0.30965      0.69822      0.20178  1.0000
  Si          0.36452      0.69931      0.30216  1.0000
  Si          0.30440      0.61211      0.97079  1.0000
  Si          0.27310      0.66336      0.63510  1.0000
  Si          0.59891      0.28309      0.80014  1.0000
  Si          0.65544      0.36342      0.46750  1.0000
  Si          0.69149      0.31749      0.13423  1.0000
  Si          0.51723      0.39889      0.96923  1.0000
  Si          0.56887      0.10979      0.30119  1.0000
  Si          0.86326      0.45583      0.63384  1.0000
  Si          0.44759      0.56960      0.46916  1.0000
  Si          0.39536      0.87416      0.80238  1.0000
  Si          0.10091      0.52691      0.13687  1.0000
  Si          0.40221      0.52628      0.36731  1.0000
  Si          0.10433      0.58557      0.03573  1.0000
  Si          0.44446      0.87133      0.70083  1.0000
  Si          0.56289      0.45484      0.86532  1.0000
  Si          0.86501      0.40274      0.53251  1.0000
  Si          0.51588      0.10768      0.19963  1.0000
  Si          0.27700      0.38084      0.84940  1.0000
  Si          0.58858      0.89938      0.18610  1.0000
  Si          0.07775      0.68381      0.51780  1.0000
  Si          0.68424      0.59853      0.35363  1.0000
  Si          0.37386      0.08107      0.68633  1.0000
  Si          0.90260      0.30213      0.01883  1.0000
  Si          0.37753      0.28817      0.48136  1.0000
  Si          0.89041      0.59574      0.15000  1.0000
  Si          0.67662      0.08273      0.81566  1.0000
  Si          0.58633      0.68359      0.98393  1.0000
  Si          0.07053      0.38363      0.65004  1.0000
  Si          0.28774      0.90008      0.31615  1.0000
  Ge          0.25288      0.34559      0.94948  1.0000
  Si          0.64598      0.90846      0.28671  1.0000
  Si          0.06522      0.73551      0.61781  1.0000
  Si          0.72543      0.64453      0.45477  1.0000
  Si          0.31686      0.07437      0.78700  1.0000
  Si          0.90203      0.24764      0.11988  1.0000
  Si          0.32522      0.24621      0.38048  1.0000
  Si          0.90114      0.65897      0.04977  1.0000
  Si          0.72418      0.07314      0.71492  1.0000
  Si          0.64268      0.73616      0.88169  1.0000
  Si          0.06735      0.32847      0.54961  1.0000
  Si          0.23623      0.90645      0.21559  1.0000
  Si          0.96609      0.11949      0.96695  1.0000
  Si          0.86305      0.84617      0.30037  1.0000
  Si          0.12754      0.01530      0.63482  1.0000
  Ge          0.00861      0.86647      0.46749  1.0000
  Si          0.09946      0.13644      0.79988  1.0000
  Si          0.83544      0.96562      0.13422  1.0000
  Si          0.10652      0.96857      0.36457  1.0000
  Si          0.83491      0.87329      0.03311  1.0000
  Si          0.00291      0.13318      0.69976  1.0000
  Si          0.85942      0.02053      0.86735  1.0000
  Si          0.13047      0.11226      0.53401  1.0000
  Si          0.95552      0.84288      0.19958  1.0000
  O2          0.90935      0.99306      0.99955  1.0000
  O2          0.98931      0.92866      0.33015  1.0000
  O2          0.04495      0.05459      0.66692  1.0000
  O3          0.04511      0.99240      0.50303  1.0000
  O2          0.97968      0.06183      0.83397  1.0000
  O2          0.91630      0.92178      0.16534  1.0000
  O2          0.32625      0.57597      0.33513  1.0000
  O2          0.39401      0.74593      0.66868  1.0000
  O2          0.23131      0.66480      0.00342  1.0000
  O2          0.63866      0.40734      0.83228  1.0000
  O2          0.56630      0.23247      0.16642  1.0000
  O2          0.74009      0.32448      0.50009  1.0000
  O2          0.57984      0.33245      0.99963  1.0000
  O2          0.73692      0.40614      0.66621  1.0000
  O2          0.64575      0.23600      0.33313  1.0000
  O2          0.40204      0.64675      0.50243  1.0000
  O2          0.22499      0.57444      0.16967  1.0000
  O2          0.31966      0.74889      0.83561  1.0000
  O3          0.11564      0.19959      0.97081  1.0000
  O2          0.77244      0.90922      0.30676  1.0000
  O2          0.06315      0.86016      0.63817  1.0000
  O3          0.84597      0.76711      0.47681  1.0000
  O2          0.18958      0.07254      0.80678  1.0000
  O2          0.90072      0.12017      0.13990  1.0000
  O2          0.20010      0.12306      0.35876  1.0000
  O2          0.90141      0.78516      0.02928  1.0000
  O2          0.84868      0.07075      0.69443  1.0000
  O2          0.76681      0.86475      0.86197  1.0000
  O2          0.06944      0.20487      0.52926  1.0000
  O2          0.11038      0.90704      0.19569  1.0000
  O2          0.90906      0.85517      0.24905  1.0000
  O2          0.12148      0.06194      0.58486  1.0000
  O2          0.90983      0.06059      0.91756  1.0000
  O2          0.04155      0.11516      0.74990  1.0000
  O2          0.84330      0.92647      0.08323  1.0000
  O3          0.04609      0.93001      0.41388  1.0000
  O2          0.90407      0.20929      0.97976  1.0000
  O2          0.78302      0.69574      0.31519  1.0000
  O2          0.27786      0.08341      0.64825  1.0000
  O3          0.08551      0.78059      0.47824  1.0000
  O2          0.18713      0.29063      0.80784  1.0000
  O2          0.68448      0.89675      0.14775  1.0000
  O2          0.18927      0.89829      0.35459  1.0000
  O2          0.68311      0.78293      0.02128  1.0000
  O2          0.07163      0.28609      0.68849  1.0000
  O2          0.77511      0.08676      0.85409  1.0000
  O2          0.28112      0.18865      0.51975  1.0000
  O2          0.88735      0.69079      0.18851  1.0000
  O2          0.30770      0.64071      0.25227  1.0000
  O2          0.33448      0.66493      0.58550  1.0000
  O2          0.30319      0.66069      0.91862  1.0000
  O2          0.65539      0.34059      0.74971  1.0000
  O2          0.63678      0.31837      0.08378  1.0000
  O2          0.65910      0.31171      0.41680  1.0000
  O3          0.36544      0.30810      0.97424  1.0000
  O2          0.65634      0.04125      0.30460  1.0000
  O2          0.93227      0.61242      0.63643  1.0000
  O2          0.60312      0.65499      0.47235  1.0000
  O2          0.30804      0.94256      0.80613  1.0000
  O2          0.03203      0.37013      0.13962  1.0000
  O2          0.31593      0.37000      0.36327  1.0000
  O2          0.03640      0.67343      0.03270  1.0000
  O2          0.60073      0.93992      0.69766  1.0000
  O2          0.64808      0.61201      0.86322  1.0000
  O2          0.93504      0.31671      0.53060  1.0000
  O2          0.35954      0.03923      0.19692  1.0000
  O2          0.76802      0.30102      0.01234  1.0000
  O2          0.68256      0.46390      0.34541  1.0000
  O2          0.50893      0.21463      0.67824  1.0000
  O2          0.21257      0.68495      0.51233  1.0000
  O2          0.28153      0.51911      0.84529  1.0000
  O2          0.45332      0.76558      0.17940  1.0000
  O2          0.28877      0.76660      0.32447  1.0000
  O2          0.45215      0.68293      0.98947  1.0000
  O2          0.20302      0.51940      0.65772  1.0000
  O2          0.67387      0.21543      0.82285  1.0000
  O2          0.51079      0.28696      0.48913  1.0000
  O2          0.75764      0.45958      0.15745  1.0000
  O2          0.77764      0.53271      0.02907  1.0000
  O2          0.45067      0.24566      0.36104  1.0000
  O2          0.72510      0.19931      0.69482  1.0000
  O2          0.19572      0.45371      0.53064  1.0000
  O2          0.51064      0.72679      0.86515  1.0000
  O2          0.23583      0.78024      0.19652  1.0000
  O2          0.52072      0.78155      0.30684  1.0000
  O3          0.22457      0.45896      0.97794  1.0000
  O2          0.19211      0.73858      0.63785  1.0000
  O2          0.44259      0.20211      0.80581  1.0000
  O2          0.72814      0.51882      0.47350  1.0000
  O2          0.77315      0.24313      0.13857  1.0000
  O3          0.19960      0.29845      0.89268  1.0000
  O2          0.66327      0.90553      0.23250  1.0000
  O2          0.06807      0.75550      0.56329  1.0000
  O2          0.75347      0.66890      0.40055  1.0000
  O2          0.29941      0.07590      0.73278  1.0000
  O2          0.90700      0.23284      0.06569  1.0000
  O2          0.30441      0.21982      0.43467  1.0000
  O2          0.89480      0.67301      0.10403  1.0000
  O2          0.74581      0.07799      0.76911  1.0000
  O2          0.65473      0.74519      0.93582  1.0000
  O2          0.06677      0.30959      0.60392  1.0000
  O2          0.21722      0.90428      0.26991  1.0000
  O2          0.56735      0.54191      0.99102  1.0000
  O2          0.42744      0.02598      0.32470  1.0000
  O2          0.94493      0.39749      0.65802  1.0000
  O2          0.38862      0.42590      0.49099  1.0000
  O2          0.53752      0.95531      0.82498  1.0000
  O2          0.01655      0.58385      0.15954  1.0000
  O2          0.54561      0.58659      0.34542  1.0000
  O2          0.02305      0.44629      0.01153  1.0000
  O2          0.38757      0.95560      0.67783  1.0000
  O2          0.42142      0.40242      0.84359  1.0000
  O2          0.95140      0.54420      0.50906  1.0000
  O2          0.57339      0.02392      0.17695  1.0000
  O2          0.56915      0.16221      0.25016  1.0000
  O2          0.81074      0.40268      0.58317  1.0000
  O2          0.56375      0.40458      0.91636  1.0000
  O2          0.39183      0.81840      0.75193  1.0000
  O2          0.15656      0.58307      0.08638  1.0000
  O2          0.39699      0.57407      0.41841  1.0000
  F           0.43759      0.89997      0.25169  1.0000
  F           0.07274      0.53593      0.58418  1.0000
  F           0.39859      0.49550      0.92260  1.0000
  F           0.52355      0.07996      0.75176  1.0000
  F           0.89500      0.45204      0.08564  1.0000
  F           0.52968      0.44297      0.41803  1.0000
