data_cif

_audit_creation_method             'generated by GULP'

_symmetry_space_group_name_H-M     'P 1'
_symmetry_Int_Tables_number        1
_symmetry_cell_setting             triclinic

_cell_length_a                       11.9856
_cell_length_b                       11.9673
_cell_length_c                       29.5071
_cell_angle_alpha                   89.7429
_cell_angle_beta                    89.8988
_cell_angle_gamma                  120.2691

loop_
_atom_site_label
_atom_site_fract_x
_atom_site_fract_y
_atom_site_fract_z
_atom_site_occupancy
  Si          0.69960      0.37570      0.03389  1.0000
  Si          0.60775      0.32208      0.36668  1.0000
  Si          0.65682      0.28749      0.69837  1.0000
  Si          0.28161      0.61529      0.53302  1.0000
  Si          0.36086      0.66670      0.86626  1.0000
  Si          0.31442      0.70433      0.20180  1.0000
  Si          0.36813      0.70342      0.30212  1.0000
  Si          0.30488      0.61494      0.96864  1.0000
  Si          0.27808      0.66703      0.63345  1.0000
  Si          0.60264      0.28769      0.79896  1.0000
  Si          0.66137      0.37428      0.46723  1.0000
  Si          0.69433      0.32404      0.13464  1.0000
  Si          0.51940      0.39964      0.96837  1.0000
  Si          0.57236      0.11376      0.30162  1.0000
  Si          0.86824      0.45971      0.63333  1.0000
  Si          0.45566      0.57940      0.46847  1.0000
  Si          0.39944      0.87787      0.80016  1.0000
  Si          0.10502      0.53432      0.13670  1.0000
  Si          0.40411      0.52936      0.36694  1.0000
  Si          0.10823      0.58697      0.03540  1.0000
  Si          0.44906      0.87617      0.69863  1.0000
  Si          0.56799      0.45936      0.86481  1.0000
  Si          0.87056      0.40967      0.53184  1.0000
  Si          0.52076      0.11410      0.20011  1.0000
  Si          0.28261      0.38538      0.84732  1.0000
  Si          0.59306      0.90558      0.18639  1.0000
  Si          0.08074      0.69199      0.51784  1.0000
  Si          0.68479      0.60113      0.35248  1.0000
  Si          0.37788      0.08559      0.68432  1.0000
  Si          0.90400      0.30325      0.01992  1.0000
  Si          0.38370      0.29814      0.48222  1.0000
  Si          0.89373      0.60349      0.14926  1.0000
  Si          0.68042      0.08708      0.81346  1.0000
  Si          0.58580      0.68379      0.98436  1.0000
  Si          0.07624      0.38778      0.64790  1.0000
  Si          0.29100      0.90414      0.31629  1.0000
  Ge          0.25771      0.35073      0.94712  1.0000
  Si          0.65000      0.91292      0.28696  1.0000
  Si          0.07037      0.73949      0.61837  1.0000
  Si          0.73403      0.65612      0.45300  1.0000
  Si          0.32080      0.07800      0.78503  1.0000
  Si          0.90493      0.25429      0.12121  1.0000
  Si          0.32665      0.24992      0.38178  1.0000
  Si          0.90361      0.65844      0.04856  1.0000
  Si          0.72885      0.07832      0.71291  1.0000
  Si          0.64833      0.74105      0.88274  1.0000
  Si          0.07150      0.33254      0.54733  1.0000
  Si          0.24113      0.91231      0.21578  1.0000
  Si          0.97118      0.12771      0.96487  1.0000
  Si          0.86666      0.84971      0.30145  1.0000
  Si          0.13119      0.01891      0.63314  1.0000
  Si          0.01445      0.87345      0.46736  1.0000
  Si          0.10360      0.14033      0.79793  1.0000
  Si          0.84211      0.97515      0.13608  1.0000
  Si          0.10911      0.96953      0.36658  1.0000
  Ge          0.83877      0.87734      0.03268  1.0000
  Si          0.00759      0.13803      0.69784  1.0000
  Si          0.86395      0.02616      0.86553  1.0000
  Si          0.13484      0.11586      0.53246  1.0000
  Si          0.96111      0.85003      0.20065  1.0000
  O3          0.91636      0.99813      0.99467  1.0000
  O2          0.98858      0.92876      0.33380  1.0000
  O2          0.04909      0.05935      0.66486  1.0000
  O2          0.05635      0.99518      0.49963  1.0000
  O2          0.98292      0.06494      0.83165  1.0000
  O2          0.92108      0.93131      0.16826  1.0000
  O2          0.32833      0.57946      0.33486  1.0000
  O2          0.40030      0.75075      0.66650  1.0000
  O2          0.23267      0.66659      0.00215  1.0000
  O2          0.64328      0.41173      0.83148  1.0000
  O2          0.57014      0.23934      0.16728  1.0000
  O2          0.74538      0.33410      0.49943  1.0000
  O2          0.58030      0.33225      0.99923  1.0000
  O2          0.74188      0.41085      0.66551  1.0000
  O2          0.64781      0.23945      0.33392  1.0000
  O2          0.40620      0.65518      0.50086  1.0000
  O2          0.22888      0.58109      0.16952  1.0000
  O2          0.32576      0.75287      0.83348  1.0000
  O3          0.12058      0.20789      0.96914  1.0000
  O2          0.77675      0.91383      0.30682  1.0000
  O2          0.06846      0.86444      0.63855  1.0000
  O2          0.86021      0.78216      0.47327  1.0000
  O2          0.19323      0.07585      0.80473  1.0000
  O2          0.90445      0.12931      0.14291  1.0000
  O2          0.19995      0.12435      0.36159  1.0000
  O3          0.90690      0.78169      0.02639  1.0000
  O2          0.85344      0.07629      0.69237  1.0000
  O2          0.77237      0.86946      0.86287  1.0000
  O2          0.07137      0.20647      0.52727  1.0000
  O2          0.11560      0.91290      0.19562  1.0000
  O2          0.91983      0.86165      0.25106  1.0000
  O2          0.12053      0.06031      0.58268  1.0000
  O2          0.91647      0.07441      0.91483  1.0000
  O2          0.04583      0.11972      0.74795  1.0000
  O3          0.85885      0.94231      0.08558  1.0000
  O2          0.05411      0.92680      0.41682  1.0000
  O2          0.90391      0.21030      0.98069  1.0000
  O2          0.78318      0.69789      0.31392  1.0000
  O2          0.28226      0.08868      0.64611  1.0000
  O2          0.08371      0.79123      0.47949  1.0000
  O2          0.19247      0.29469      0.80578  1.0000
  O2          0.68944      0.90365      0.14800  1.0000
  O2          0.19225      0.90146      0.35464  1.0000
  O3          0.67445      0.77864      0.02325  1.0000
  O2          0.07759      0.29063      0.68632  1.0000
  O2          0.77839      0.09018      0.85170  1.0000
  O2          0.28687      0.19924      0.52077  1.0000
  O2          0.89078      0.69884      0.18774  1.0000
  O2          0.31223      0.64581      0.25202  1.0000
  O2          0.33756      0.67027      0.58341  1.0000
  O2          0.30422      0.66412      0.91654  1.0000
  O2          0.65905      0.34513      0.74861  1.0000
  O2          0.63794      0.32153      0.08413  1.0000
  O2          0.66276      0.31931      0.41693  1.0000
  O3          0.36746      0.30951      0.97215  1.0000
  O2          0.66004      0.04551      0.30504  1.0000
  O2          0.93729      0.61620      0.63653  1.0000
  O2          0.61218      0.66655      0.47161  1.0000
  O2          0.31208      0.94624      0.80411  1.0000
  O2          0.03530      0.37780      0.14012  1.0000
  O2          0.31658      0.37271      0.36379  1.0000
  O2          0.03933      0.67296      0.03242  1.0000
  O2          0.60539      0.94495      0.69567  1.0000
  O2          0.65283      0.61665      0.86372  1.0000
  O2          0.93936      0.32246      0.52886  1.0000
  O2          0.36434      0.04532      0.19739  1.0000
  O2          0.76875      0.30075      0.01326  1.0000
  O2          0.68354      0.46667      0.34482  1.0000
  O2          0.51290      0.21965      0.67679  1.0000
  O2          0.21441      0.69127      0.51070  1.0000
  O2          0.28917      0.52458      0.84328  1.0000
  O2          0.45794      0.77164      0.17928  1.0000
  O2          0.29224      0.77077      0.32423  1.0000
  O2          0.45190      0.68431      0.98737  1.0000
  O2          0.20962      0.52286      0.65572  1.0000
  O2          0.67727      0.21936      0.82129  1.0000
  O2          0.51774      0.29854      0.48973  1.0000
  O2          0.76108      0.46717      0.15717  1.0000
  O2          0.77844      0.53200      0.02843  1.0000
  O2          0.45161      0.24874      0.36200  1.0000
  O2          0.72917      0.20430      0.69318  1.0000
  O2          0.19874      0.45892      0.52805  1.0000
  O2          0.51644      0.73255      0.86626  1.0000
  O2          0.24057      0.78618      0.19659  1.0000
  O2          0.52447      0.78591      0.30694  1.0000
  O3          0.22504      0.46206      0.97503  1.0000
  O2          0.19659      0.74134      0.63827  1.0000
  O2          0.44615      0.20597      0.80418  1.0000
  O2          0.73559      0.53060      0.47236  1.0000
  O2          0.77603      0.25017      0.13951  1.0000
  O3          0.20435      0.30288      0.89029  1.0000
  O2          0.66752      0.91073      0.23275  1.0000
  O2          0.07469      0.76080      0.56417  1.0000
  O2          0.75455      0.67528      0.39880  1.0000
  O2          0.30322      0.07943      0.73082  1.0000
  O2          0.90762      0.23454      0.06705  1.0000
  O2          0.30865      0.22851      0.43602  1.0000
  O2          0.89524      0.67732      0.10278  1.0000
  O2          0.75051      0.08340      0.76704  1.0000
  O2          0.66117      0.74880      0.93704  1.0000
  O2          0.07223      0.31384      0.60159  1.0000
  O2          0.22121      0.90923      0.27004  1.0000
  O2          0.56641      0.54156      0.99053  1.0000
  O2          0.43071      0.02997      0.32490  1.0000
  O2          0.95054      0.40109      0.65670  1.0000
  O2          0.39751      0.43728      0.49146  1.0000
  O2          0.54177      0.95906      0.82258  1.0000
  O2          0.02121      0.59339      0.15835  1.0000
  O2          0.54564      0.58728      0.34381  1.0000
  O2          0.02606      0.44598      0.01242  1.0000
  O2          0.39241      0.96061      0.67558  1.0000
  O2          0.42725      0.40690      0.84236  1.0000
  O2          0.95559      0.55194      0.50896  1.0000
  O2          0.57810      0.03028      0.17729  1.0000
  O2          0.57370      0.16743      0.25078  1.0000
  O2          0.81608      0.40763      0.58256  1.0000
  O2          0.56802      0.40745      0.91564  1.0000
  O2          0.39560      0.82271      0.74958  1.0000
  O2          0.16166      0.58725      0.08608  1.0000
  O2          0.40355      0.58108      0.41778  1.0000
  F           0.44224      0.90509      0.25165  1.0000
  F           0.07802      0.53969      0.58334  1.0000
  F           0.40299      0.49927      0.92122  1.0000
  F           0.52764      0.08446      0.74985  1.0000
  F           0.89748      0.45610      0.08574  1.0000
  F           0.53361      0.44977      0.41772  1.0000
