data_cif

_audit_creation_method             'generated by GULP'

_symmetry_space_group_name_H-M     'P 1'
_symmetry_Int_Tables_number        1
_symmetry_cell_setting             triclinic

_cell_length_a                       12.0020
_cell_length_b                       11.9492
_cell_length_c                       29.4897
_cell_angle_alpha                   89.7137
_cell_angle_beta                    89.7968
_cell_angle_gamma                  120.2290

loop_
_atom_site_label
_atom_site_fract_x
_atom_site_fract_y
_atom_site_fract_z
_atom_site_occupancy
  Si          0.69960      0.37570      0.03389  1.0000
  Si          0.61203      0.32119      0.36696  1.0000
  Si          0.65545      0.28296      0.69955  1.0000
  Si          0.27946      0.61107      0.53392  1.0000
  Si          0.35749      0.66171      0.86717  1.0000
  Si          0.31050      0.70022      0.20117  1.0000
  Si          0.36711      0.69833      0.30105  1.0000
  Si          0.30548      0.61320      0.97022  1.0000
  Si          0.27616      0.66311      0.63445  1.0000
  Si          0.60005      0.28211      0.80010  1.0000
  Si          0.65957      0.36816      0.46806  1.0000
  Si          0.69241      0.31866      0.13435  1.0000
  Si          0.51724      0.39874      0.96946  1.0000
  Si          0.57211      0.11214      0.30146  1.0000
  Si          0.86660      0.45563      0.63428  1.0000
  Si          0.45355      0.57484      0.46916  1.0000
  Si          0.39743      0.87348      0.80147  1.0000
  Si          0.10208      0.52893      0.13596  1.0000
  Si          0.40855      0.53100      0.36731  1.0000
  Si          0.10464      0.58649      0.03480  1.0000
  Si          0.44755      0.87139      0.69991  1.0000
  Si          0.56383      0.45378      0.86554  1.0000
  Si          0.86839      0.40471      0.53274  1.0000
  Si          0.51680      0.10990      0.20013  1.0000
  Si          0.27866      0.38007      0.84934  1.0000
  Si          0.58947      0.90185      0.18514  1.0000
  Si          0.07857      0.68726      0.51847  1.0000
  Si          0.68893      0.60125      0.35405  1.0000
  Si          0.37684      0.08143      0.68568  1.0000
  Si          0.90263      0.30262      0.01838  1.0000
  Si          0.38141      0.29181      0.48179  1.0000
  Si          0.89187      0.59763      0.14936  1.0000
  Si          0.67827      0.08183      0.81520  1.0000
  Si          0.58664      0.68415      0.98385  1.0000
  Si          0.07411      0.38341      0.64902  1.0000
  Si          0.29258      0.89987      0.31688  1.0000
  Ge          0.25359      0.34583      0.94943  1.0000
  Si          0.64692      0.90952      0.28561  1.0000
  Si          0.06870      0.73554      0.61905  1.0000
  Si          0.73182      0.65046      0.45513  1.0000
  Si          0.31850      0.07356      0.78635  1.0000
  Si          0.90301      0.24926      0.11944  1.0000
  Si          0.33211      0.25130      0.38085  1.0000
  Si          0.90137      0.65947      0.04913  1.0000
  Si          0.72687      0.07309      0.71445  1.0000
  Si          0.64402      0.73578      0.88160  1.0000
  Si          0.06959      0.32831      0.54843  1.0000
  Si          0.23737      0.90890      0.21691  1.0000
  Si          0.96663      0.12005      0.96658  1.0000
  Si          0.86379      0.84807      0.30018  1.0000
  Si          0.13074      0.01578      0.63466  1.0000
  Si          0.00937      0.86803      0.46950  1.0000
  Si          0.10117      0.13567      0.79952  1.0000
  Si          0.83692      0.96722      0.13385  1.0000
  Ge          0.10926      0.96794      0.36655  1.0000
  Si          0.83520      0.87386      0.03274  1.0000
  Si          0.00556      0.13352      0.69938  1.0000
  Si          0.86109      0.02007      0.86695  1.0000
  Si          0.13353      0.11194      0.53381  1.0000
  Si          0.95704      0.84497      0.19944  1.0000
  O2          0.90923      0.99344      0.99909  1.0000
  O3          0.98675      0.93450      0.32974  1.0000
  O2          0.04802      0.05476      0.66676  1.0000
  O2          0.05240      0.98833      0.50274  1.0000
  O2          0.98126      0.06077      0.83356  1.0000
  O2          0.91778      0.92385      0.16514  1.0000
  O2          0.33057      0.57650      0.33450  1.0000
  O2          0.39806      0.74613      0.66757  1.0000
  O2          0.23150      0.66591      0.00248  1.0000
  O2          0.63957      0.40591      0.83259  1.0000
  O2          0.56766      0.23484      0.16686  1.0000
  O2          0.74315      0.32801      0.50053  1.0000
  O2          0.57928      0.33214      0.99999  1.0000
  O2          0.74042      0.40647      0.66660  1.0000
  O2          0.65045      0.23803      0.33359  1.0000
  O2          0.40384      0.65003      0.50178  1.0000
  O2          0.22631      0.57747      0.16857  1.0000
  O2          0.32180      0.74811      0.83468  1.0000
  O3          0.11592      0.20029      0.97079  1.0000
  O2          0.77142      0.90900      0.30588  1.0000
  O2          0.06711      0.86086      0.63915  1.0000
  O2          0.85589      0.77444      0.47703  1.0000
  O2          0.19088      0.07121      0.80601  1.0000
  O2          0.90222      0.12198      0.13947  1.0000
  O3          0.20827      0.13191      0.35902  1.0000
  O2          0.90115      0.78529      0.02849  1.0000
  O2          0.85159      0.07122      0.69397  1.0000
  O2          0.76858      0.86400      0.86188  1.0000
  O2          0.07043      0.20282      0.52819  1.0000
  O2          0.11211      0.90992      0.19682  1.0000
  O2          0.90918      0.85540      0.24876  1.0000
  O2          0.12286      0.06157      0.58463  1.0000
  O2          0.91171      0.06135      0.91705  1.0000
  O2          0.04340      0.11580      0.74962  1.0000
  O2          0.84514      0.92735      0.08295  1.0000
  O3          0.04167      0.92398      0.41948  1.0000
  O2          0.90404      0.20953      0.97927  1.0000
  O2          0.78830      0.69776      0.31572  1.0000
  O2          0.28134      0.08453      0.64758  1.0000
  O2          0.08090      0.78634      0.47994  1.0000
  O2          0.18916      0.28981      0.80776  1.0000
  O2          0.68567      0.89914      0.14688  1.0000
  O3          0.19655      0.89271      0.35644  1.0000
  O2          0.68328      0.78377      0.02121  1.0000
  O2          0.07516      0.28616      0.68756  1.0000
  O2          0.77656      0.08585      0.85358  1.0000
  O2          0.28420      0.19271      0.52023  1.0000
  O2          0.88961      0.69315      0.18786  1.0000
  O2          0.31031      0.64050      0.25107  1.0000
  O2          0.33537      0.66642      0.58428  1.0000
  O2          0.30525      0.66167      0.91800  1.0000
  O2          0.65709      0.34036      0.74980  1.0000
  O2          0.63757      0.31892      0.08391  1.0000
  O2          0.66399      0.31551      0.41752  1.0000
  O3          0.36556      0.30821      0.97441  1.0000
  O2          0.65852      0.04262      0.30396  1.0000
  O2          0.93569      0.61233      0.63738  1.0000
  O2          0.60951      0.66052      0.47320  1.0000
  O2          0.30990      0.94163      0.80531  1.0000
  O2          0.03317      0.37200      0.13897  1.0000
  O2          0.32260      0.37519      0.36413  1.0000
  O2          0.03646      0.67414      0.03187  1.0000
  O2          0.60367      0.93997      0.69698  1.0000
  O2          0.64920      0.61108      0.86339  1.0000
  O2          0.93753      0.31770      0.52992  1.0000
  O2          0.36058      0.04154      0.19793  1.0000
  O2          0.76787      0.30094      0.01215  1.0000
  O2          0.68869      0.46710      0.34608  1.0000
  O2          0.51190      0.21527      0.67796  1.0000
  O2          0.21236      0.68691      0.51133  1.0000
  O2          0.28364      0.51862      0.84500  1.0000
  O2          0.45360      0.76882      0.17837  1.0000
  O2          0.29187      0.76517      0.32355  1.0000
  O2          0.45271      0.68389      0.98920  1.0000
  O2          0.20732      0.51858      0.65667  1.0000
  O2          0.67492      0.21430      0.82264  1.0000
  O2          0.51515      0.29206      0.48984  1.0000
  O2          0.75939      0.46147      0.15722  1.0000
  O2          0.77766      0.53278      0.02876  1.0000
  O2          0.45699      0.24922      0.36150  1.0000
  O2          0.72766      0.19948      0.69464  1.0000
  O2          0.19682      0.45465      0.52912  1.0000
  O2          0.51258      0.72668      0.86475  1.0000
  O2          0.23580      0.78177      0.19779  1.0000
  O2          0.52270      0.78148      0.30538  1.0000
  O3          0.22536      0.45996      0.97756  1.0000
  O2          0.19469      0.73749      0.63904  1.0000
  O2          0.44382      0.20116      0.80548  1.0000
  O2          0.73288      0.52412      0.47397  1.0000
  O2          0.77437      0.24460      0.13846  1.0000
  O3          0.20092      0.29804      0.89262  1.0000
  O2          0.66405      0.90758      0.23136  1.0000
  O2          0.07278      0.75653      0.56479  1.0000
  O2          0.75698      0.67299      0.40095  1.0000
  O2          0.30186      0.07559      0.73211  1.0000
  O2          0.90740      0.23373      0.06526  1.0000
  O2          0.30966      0.22235      0.43510  1.0000
  O2          0.89555      0.67437      0.10338  1.0000
  O2          0.74778      0.07745      0.76865  1.0000
  O2          0.65532      0.74538      0.93574  1.0000
  O2          0.07000      0.30931      0.60272  1.0000
  O2          0.21943      0.90803      0.27150  1.0000
  O2          0.56729      0.54219      0.99111  1.0000
  O2          0.43150      0.02725      0.32534  1.0000
  O2          0.94867      0.39697      0.65775  1.0000
  O2          0.39326      0.43054      0.49077  1.0000
  O2          0.53920      0.95424      0.82422  1.0000
  O2          0.01825      0.58640      0.15866  1.0000
  O2          0.55128      0.59003      0.34514  1.0000
  O2          0.02292      0.44681      0.01076  1.0000
  O2          0.39115      0.95617      0.67695  1.0000
  O2          0.42276      0.40120      0.84370  1.0000
  O2          0.95374      0.54694      0.50964  1.0000
  O2          0.57405      0.02659      0.17672  1.0000
  O2          0.57098      0.16477      0.25058  1.0000
  O2          0.81438      0.40333      0.58355  1.0000
  O2          0.56410      0.40378      0.91665  1.0000
  O2          0.39432      0.81806      0.75094  1.0000
  O2          0.15724      0.58441      0.08538  1.0000
  O2          0.40575      0.58166      0.41821  1.0000
  F           0.43830      0.90217      0.25166  1.0000
  F           0.07597      0.53557      0.58414  1.0000
  F           0.39959      0.49551      0.92252  1.0000
  F           0.52574      0.07986      0.75123  1.0000
  F           0.89592      0.45313      0.08513  1.0000
  F           0.53464      0.44675      0.41828  1.0000
