data_cif

_audit_creation_method             'generated by GULP'

_symmetry_space_group_name_H-M     'P 1'
_symmetry_Int_Tables_number        1
_symmetry_cell_setting             triclinic

_cell_length_a                       11.9687
_cell_length_b                       11.9687
_cell_length_c                       29.4531
_cell_angle_alpha                   90.1100
_cell_angle_beta                    89.8901
_cell_angle_gamma                  119.8718

loop_
_atom_site_label
_atom_site_fract_x
_atom_site_fract_y
_atom_site_fract_z
_atom_site_occupancy
  Si          0.69960      0.37570      0.03389  1.0000
  Si          0.62334      0.32278      0.36652  1.0000
  Si          0.67310      0.29149      0.69967  1.0000
  Si          0.29112      0.61546      0.53285  1.0000
  Si          0.37478      0.66997      0.86551  1.0000
  Si          0.32023      0.69989      0.19902  1.0000
  Si          0.37711      0.69821      0.29931  1.0000
  Si          0.32417      0.62195      0.96668  1.0000
  Si          0.29289      0.67171      0.63354  1.0000
  Si          0.61685      0.28973      0.80036  1.0000
  Si          0.67136      0.37339      0.46770  1.0000
  Si          0.70128      0.31883      0.13419  1.0000
  Si          0.53255      0.41702      0.96769  1.0000
  Si          0.58219      0.11177      0.30140  1.0000
  Si          0.88240      0.46560      0.63461  1.0000
  Si          0.46376      0.57761      0.46754  1.0000
  Si          0.41323      0.87962      0.80036  1.0000
  Si          0.11223      0.52576      0.13334  1.0000
  Si          0.41841      0.53116      0.36552  1.0000
  Si          0.11316      0.58080      0.03180  1.0000
  Si          0.46699      0.88101      0.69859  1.0000
  Si          0.57901      0.46237      0.86566  1.0000
  Si          0.88102      0.41184      0.53284  1.0000
  Si          0.52716      0.11083      0.19986  1.0000
  Si          0.29731      0.39083      0.85255  1.0000
  Si          0.59852      0.90205      0.18438  1.0000
  Si          0.08957      0.69191      0.51826  1.0000
  Si          0.69907      0.60086      0.35298  1.0000
  Si          0.39547      0.09026      0.68479  1.0000
  Si          0.90196      0.30189      0.01719  1.0000
  Si          0.39222      0.29592      0.48066  1.0000
  Si          0.90344      0.59712      0.14882  1.0000
  Si          0.69331      0.08818      0.81494  1.0000
  Si          0.60225      0.69767      0.98022  1.0000
  Si          0.09165      0.39408      0.64841  1.0000
  Si          0.30329      0.90056      0.31601  1.0000
  Si          0.25440      0.34151      0.95377  1.0000
  Si          0.65638      0.90847      0.28487  1.0000
  Si          0.08357      0.74375      0.61900  1.0000
  Si          0.74294      0.65429      0.45413  1.0000
  Si          0.33638      0.08155      0.78541  1.0000
  Si          0.91115      0.24750      0.11733  1.0000
  Si          0.34291      0.25301      0.37943  1.0000
  Si          0.90986      0.65498      0.04833  1.0000
  Si          0.74514      0.08218      0.71421  1.0000
  Si          0.65568      0.74155      0.87907  1.0000
  Si          0.08294      0.33499      0.54779  1.0000
  Si          0.24889      0.90975      0.21587  1.0000
  Ge          0.97148      0.11946      0.96685  1.0000
  Si          0.87368      0.84629      0.30014  1.0000
  Si          0.14824      0.02483      0.63415  1.0000
  Si          0.02023      0.87238      0.46923  1.0000
  Si          0.11882      0.14444      0.79997  1.0000
  Si          0.84661      0.96682      0.13392  1.0000
  Ge          0.12086      0.97009      0.36635  1.0000
  Si          0.84768      0.87228      0.03307  1.0000
  Si          0.02622      0.14685      0.69905  1.0000
  Si          0.87377      0.01884      0.86397  1.0000
  Si          0.14583      0.11743      0.53323  1.0000
  Si          0.96821      0.84522      0.19928  1.0000
  O3          0.93442      0.99331      0.00258  1.0000
  O3          0.99471      0.93303      0.33062  1.0000
  O2          0.06780      0.06641      0.66660  1.0000
  O2          0.06252      0.99238      0.50283  1.0000
  O2          0.99377      0.06113      0.83038  1.0000
  O2          0.92673      0.92533      0.16660  1.0000
  O2          0.34069      0.57653      0.33228  1.0000
  O2          0.41677      0.75577      0.66591  1.0000
  O2          0.23876      0.65978      0.99952  1.0000
  O2          0.65473      0.41257      0.83312  1.0000
  O2          0.57866      0.23626      0.16728  1.0000
  O2          0.75503      0.33454      0.50076  1.0000
  O2          0.57792      0.33929      0.00092  1.0000
  O2          0.75716      0.41538      0.66730  1.0000
  O2          0.66117      0.23737      0.33368  1.0000
  O2          0.41397      0.65334      0.50009  1.0000
  O2          0.23766      0.57727      0.16593  1.0000
  O2          0.33593      0.75364      0.83245  1.0000
  O3          0.13408      0.21795      0.97542  1.0000
  O2          0.78069      0.90712      0.30519  1.0000
  O2          0.08368      0.87044      0.63883  1.0000
  O2          0.86655      0.77947      0.47568  1.0000
  O2          0.20986      0.08122      0.80547  1.0000
  O2          0.91192      0.12163      0.13745  1.0000
  O3          0.21934      0.13269      0.35778  1.0000
  O2          0.90850      0.77929      0.02801  1.0000
  O2          0.87183      0.08229      0.69438  1.0000
  O2          0.78086      0.86516      0.85752  1.0000
  O2          0.08261      0.20847      0.52773  1.0000
  O2          0.12302      0.91052      0.19576  1.0000
  O2          0.92232      0.85381      0.24916  1.0000
  O2          0.13859      0.06943      0.58411  1.0000
  O3          0.93123      0.05471      0.91359  1.0000
  O2          0.07082      0.13720      0.74909  1.0000
  O2          0.85520      0.92093      0.08404  1.0000
  O3          0.05610      0.92984      0.41962  1.0000
  O3          0.89539      0.20621      0.97756  1.0000
  O2          0.79806      0.69641      0.31480  1.0000
  O2          0.29930      0.09240      0.64646  1.0000
  O2          0.09092      0.78990      0.47977  1.0000
  O2          0.19870      0.29419      0.81441  1.0000
  O2          0.69547      0.90056      0.14616  1.0000
  O3          0.20761      0.89399      0.35565  1.0000
  O2          0.69780      0.79667      0.01841  1.0000
  O2          0.09379      0.29791      0.68675  1.0000
  O2          0.79129      0.08953      0.85343  1.0000
  O2          0.29558      0.19731      0.51879  1.0000
  O2          0.90196      0.69407      0.18705  1.0000
  O2          0.32080      0.64133      0.24896  1.0000
  O2          0.34929      0.67231      0.58303  1.0000
  O2          0.32071      0.67485      0.91598  1.0000
  O2          0.67370      0.34790      0.75018  1.0000
  O2          0.64272      0.31940      0.08425  1.0000
  O2          0.67624      0.31932      0.41722  1.0000
  O2          0.37735      0.33145      0.97096  1.0000
  O2          0.66823      0.04142      0.30361  1.0000
  O2          0.95128      0.62185      0.63766  1.0000
  O2          0.61956      0.66372      0.47170  1.0000
  O2          0.32595      0.94880      0.80352  1.0000
  O2          0.04346      0.36948      0.13610  1.0000
  O2          0.33284      0.37596      0.36224  1.0000
  O2          0.04281      0.66683      0.02960  1.0000
  O2          0.62324      0.94989      0.69554  1.0000
  O2          0.66511      0.61817      0.86150  1.0000
  O2          0.95019      0.32456      0.52968  1.0000
  O2          0.37087      0.04206      0.19710  1.0000
  O2          0.76718      0.30083      0.01124  1.0000
  O2          0.69953      0.46698      0.34515  1.0000
  O2          0.52986      0.22359      0.67740  1.0000
  O2          0.22302      0.69074      0.51049  1.0000
  O2          0.29896      0.52552      0.84421  1.0000
  O2          0.46351      0.76968      0.17665  1.0000
  O2          0.30223      0.76579      0.32197  1.0000
  O2          0.46837      0.69814      0.98806  1.0000
  O2          0.22498      0.52847      0.65580  1.0000
  O2          0.69213      0.22163      0.82271  1.0000
  O2          0.52691      0.29757      0.48900  1.0000
  O2          0.77107      0.46212      0.15655  1.0000
  O2          0.78247      0.53101      0.02917  1.0000
  O2          0.46832      0.25065      0.36048  1.0000
  O2          0.74676      0.20895      0.69474  1.0000
  O2          0.20916      0.45962      0.52804  1.0000
  O2          0.53025      0.74267      0.85982  1.0000
  O2          0.24605      0.78230      0.19609  1.0000
  O2          0.53242      0.78108      0.30403  1.0000
  O2          0.25205      0.46693      0.97272  1.0000
  O2          0.21034      0.74537      0.63847  1.0000
  O2          0.46101      0.20777      0.80517  1.0000
  O2          0.74406      0.52886      0.47338  1.0000
  O2          0.78369      0.24465      0.13712  1.0000
  O2          0.22759      0.31958      0.89948  1.0000
  O2          0.67345      0.90675      0.23055  1.0000
  O2          0.08494      0.76233      0.56465  1.0000
  O2          0.76734      0.67398      0.39988  1.0000
  O2          0.31987      0.08461      0.73110  1.0000
  O2          0.91060      0.22914      0.06273  1.0000
  O2          0.32097      0.22620      0.43373  1.0000
  O2          0.90814      0.67205      0.10265  1.0000
  O2          0.76372      0.08355      0.76855  1.0000
  O2          0.67537      0.76594      0.93332  1.0000
  O2          0.08600      0.31848      0.60210  1.0000
  O2          0.23054      0.90920      0.27047  1.0000
  O2          0.59072      0.55967      0.98963  1.0000
  O2          0.44191      0.02699      0.32501  1.0000
  O2          0.96658      0.40849      0.65757  1.0000
  O2          0.40399      0.43459      0.48927  1.0000
  O2          0.55392      0.96315      0.82375  1.0000
  O2          0.02883      0.58295      0.15705  1.0000
  O2          0.56107      0.58933      0.34357  1.0000
  O2          0.02838      0.44051      0.00820  1.0000
  O2          0.40988      0.96519      0.67563  1.0000
  O2          0.43598      0.40260      0.84393  1.0000
  O2          0.96454      0.55253      0.50946  1.0000
  O2          0.58434      0.02744      0.17615  1.0000
  O2          0.58055      0.16450      0.25063  1.0000
  O2          0.82876      0.41259      0.58381  1.0000
  O2          0.58409      0.41382      0.91679  1.0000
  O2          0.41398      0.82737      0.74939  1.0000
  O2          0.16590      0.57916      0.08257  1.0000
  O2          0.41521      0.58269      0.41641  1.0000
  F           0.44863      0.90306      0.25038  1.0000
  F           0.09012      0.54295      0.58332  1.0000
  F           0.45058      0.54434      0.91644  1.0000
  F           0.54434      0.08873      0.74989  1.0000
  F           0.90445      0.44723      0.08283  1.0000
  F           0.54573      0.44919      0.41676  1.0000
