data_cif

_audit_creation_method             'generated by GULP'

_symmetry_space_group_name_H-M     'P 1'
_symmetry_Int_Tables_number        1
_symmetry_cell_setting             triclinic

_cell_length_a                       11.9039
_cell_length_b                       12.0010
_cell_length_c                       29.4505
_cell_angle_alpha                   89.9511
_cell_angle_beta                    90.6629
_cell_angle_gamma                  119.4602

loop_
_atom_site_label
_atom_site_fract_x
_atom_site_fract_y
_atom_site_fract_z
_atom_site_occupancy
  Si          0.69960      0.37570      0.03389  1.0000
  Si          0.59486      0.31115      0.36351  1.0000
  Si          0.67055      0.28946      0.69605  1.0000
  Si          0.28499      0.59907      0.52240  1.0000
  Ge          0.36661      0.64837      0.86822  1.0000
  Si          0.29962      0.69043      0.19427  1.0000
  Si          0.35488      0.68203      0.29386  1.0000
  Si          0.29947      0.61322      0.96598  1.0000
  Ge          0.28354      0.65111      0.62053  1.0000
  Si          0.61680      0.28990      0.79706  1.0000
  Si          0.66222      0.35377      0.45951  1.0000
  Si          0.66463      0.30605      0.12962  1.0000
  Si          0.52972      0.41392      0.96673  1.0000
  Si          0.55651      0.10027      0.30051  1.0000
  Si          0.88189      0.45883      0.63134  1.0000
  Si          0.44580      0.55461      0.45627  1.0000
  Ge          0.41508      0.86726      0.79897  1.0000
  Si          0.08188      0.51336      0.13234  1.0000
  Si          0.39414      0.49868      0.35281  1.0000
  Si          0.08446      0.56790      0.02943  1.0000
  Ge          0.46380      0.87228      0.69064  1.0000
  Si          0.57544      0.46218      0.86248  1.0000
  Si          0.87299      0.40108      0.52840  1.0000
  Si          0.50221      0.09847      0.19716  1.0000
  Si          0.28441      0.37986      0.84617  1.0000
  Si          0.57499      0.89061      0.18076  1.0000
  Si          0.08582      0.68189      0.51256  1.0000
  Si          0.67971      0.57384      0.34028  1.0000
  Si          0.39252      0.09107      0.67878  1.0000
  Si          0.87791      0.28623      0.01212  1.0000
  Si          0.37814      0.27316      0.47150  1.0000
  Si          0.86774      0.58593      0.14431  1.0000
  Si          0.70222      0.09278      0.81156  1.0000
  Si          0.58628      0.69689      0.97573  1.0000
  Si          0.09310      0.37778      0.64397  1.0000
  Si          0.27672      0.88086      0.31022  1.0000
  Si          0.24346      0.33349      0.94965  1.0000
  Si          0.63237      0.89521      0.28174  1.0000
  Si          0.08164      0.74059      0.61432  1.0000
  Si          0.72981      0.63474      0.44258  1.0000
  Si          0.33773      0.07729      0.77998  1.0000
  Si          0.88072      0.23587      0.11478  1.0000
  Si          0.31802      0.22033      0.36898  1.0000
  Si          0.88146      0.64891      0.04228  1.0000
  Si          0.74600      0.08281      0.71022  1.0000
  Si          0.65295      0.74612      0.87336  1.0000
  Si          0.07999      0.32343      0.54110  1.0000
  Si          0.22441      0.89472      0.20980  1.0000
  Si          0.96571      0.11619      0.96403  1.0000
  Si          0.85031      0.82988      0.29500  1.0000
  Si          0.14183      0.01886      0.62747  1.0000
  Si          0.00695      0.85596      0.46130  1.0000
  Si          0.11418      0.12901      0.79585  1.0000
  Si          0.82205      0.95933      0.12978  1.0000
  Si          0.09522      0.94549      0.36027  1.0000
  Si          0.83334      0.87553      0.02834  1.0000
  Si          0.02108      0.13292      0.69490  1.0000
  Si          0.87978      0.01973      0.86265  1.0000
  Si          0.13270      0.10031      0.52512  1.0000
  Si          0.94415      0.83599      0.19460  1.0000
  O2          0.92194      0.99766      0.99794  1.0000
  O2          0.96823      0.90112      0.32999  1.0000
  O2          0.05714      0.05441      0.65965  1.0000
  O2          0.04404      0.97442      0.49520  1.0000
  O2          0.99779      0.05116      0.82987  1.0000
  O2          0.90346      0.91706      0.16194  1.0000
  O2          0.31756      0.55342      0.32294  1.0000
  O2          0.41838      0.74891      0.65286  1.0000
  O2          0.21739      0.64449      0.00250  1.0000
  O2          0.65074      0.41063      0.83037  1.0000
  O2          0.55003      0.22390      0.16499  1.0000
  O2          0.74600      0.32408      0.49673  1.0000
  O3          0.57240      0.33715      0.99894  1.0000
  O2          0.75902      0.41307      0.66398  1.0000
  O3          0.63602      0.22045      0.33208  1.0000
  O3          0.39507      0.63395      0.48346  1.0000
  O2          0.21060      0.56457      0.16301  1.0000
  O3          0.32927      0.74387      0.83463  1.0000
  O2          0.11913      0.20880      0.97084  1.0000
  O2          0.75888      0.89224      0.30192  1.0000
  O2          0.07678      0.86533      0.63213  1.0000
  O2          0.85246      0.76203      0.46348  1.0000
  O2          0.20954      0.07155      0.80081  1.0000
  O2          0.88232      0.11220      0.13580  1.0000
  O2          0.18493      0.09721      0.35192  1.0000
  O2          0.89481      0.78260      0.02464  1.0000
  O2          0.87004      0.08091      0.68899  1.0000
  O2          0.78924      0.86713      0.85809  1.0000
  O2          0.07272      0.19466      0.52025  1.0000
  O2          0.09755      0.89556      0.18935  1.0000
  O2          0.90741      0.85292      0.24500  1.0000
  O2          0.12978      0.05678      0.57628  1.0000
  O2          0.93306      0.06092      0.91352  1.0000
  O2          0.05878      0.11290      0.74505  1.0000
  O2          0.83751      0.92414      0.07905  1.0000
  O2          0.05098      0.91455      0.41194  1.0000
  O2          0.89008      0.19407      0.97462  1.0000
  O2          0.77203      0.67716      0.30320  1.0000
  O2          0.29280      0.09376      0.64063  1.0000
  O2          0.07725      0.77469      0.47409  1.0000
  O2          0.19257      0.27833      0.80806  1.0000
  O2          0.67110      0.89017      0.14200  1.0000
  O2          0.17585      0.87403      0.34855  1.0000
  O2          0.68377      0.79783      0.01346  1.0000
  O2          0.09377      0.28334      0.68266  1.0000
  O2          0.80523      0.09691      0.84942  1.0000
  O2          0.28161      0.17645      0.50936  1.0000
  O2          0.87081      0.68467      0.18251  1.0000
  O2          0.29964      0.62753      0.24319  1.0000
  O3          0.36340      0.65940      0.56763  1.0000
  O3          0.28679      0.66457      0.91815  1.0000
  O2          0.67039      0.34585      0.74640  1.0000
  O3          0.60825      0.30387      0.07936  1.0000
  O3          0.66721      0.29606      0.41085  1.0000
  O2          0.37142      0.33217      0.96662  1.0000
  O2          0.64097      0.02529      0.30028  1.0000
  O2          0.95192      0.61408      0.63157  1.0000
  O2          0.60248      0.63720      0.45914  1.0000
  O2          0.32649      0.94708      0.79758  1.0000
  O2          0.01142      0.35852      0.13352  1.0000
  O2          0.30943      0.34375      0.35010  1.0000
  O2          0.01308      0.65280      0.02542  1.0000
  O2          0.63119      0.95240      0.69011  1.0000
  O2          0.65919      0.61692      0.85954  1.0000
  O2          0.94686      0.31875      0.52572  1.0000
  O2          0.34555      0.02713      0.19242  1.0000
  O3          0.74514      0.28702      0.00355  1.0000
  O3          0.68392      0.44334      0.33336  1.0000
  O2          0.52806      0.22434      0.67231  1.0000
  O3          0.21459      0.67698      0.50138  1.0000
  O3          0.27435      0.50333      0.83612  1.0000
  O2          0.44089      0.75863      0.17074  1.0000
  O2          0.27714      0.74667      0.31695  1.0000
  O2          0.44977      0.69145      0.98428  1.0000
  O2          0.22850      0.50676      0.65029  1.0000
  O2          0.69708      0.22473      0.81833  1.0000
  O2          0.51572      0.27914      0.47952  1.0000
  O2          0.73449      0.45256      0.14994  1.0000
  O3          0.75443      0.53102      0.02108  1.0000
  O3          0.43895      0.21371      0.34913  1.0000
  O2          0.74761      0.21035      0.69093  1.0000
  O3          0.20174      0.44225      0.51811  1.0000
  O3          0.53590      0.74985      0.85029  1.0000
  O2          0.22029      0.76823      0.18873  1.0000
  O2          0.51011      0.76643      0.30061  1.0000
  O2          0.24089      0.45825      0.96840  1.0000
  O2          0.20883      0.74369      0.63396  1.0000
  O2          0.46172      0.20411      0.80042  1.0000
  O2          0.73018      0.50938      0.46210  1.0000
  O2          0.75631      0.24069      0.13280  1.0000
  O2          0.22438      0.31616      0.89526  1.0000
  O2          0.64902      0.89163      0.22730  1.0000
  O2          0.08495      0.75181      0.55922  1.0000
  O2          0.74417      0.64611      0.38822  1.0000
  O2          0.32026      0.08610      0.72559  1.0000
  O2          0.88152      0.22154      0.06039  1.0000
  O2          0.30888      0.20815      0.42400  1.0000
  O2          0.87617      0.65818      0.09727  1.0000
  O2          0.76957      0.08778      0.76458  1.0000
  O2          0.65324      0.76254      0.92857  1.0000
  O2          0.08577      0.30926      0.59541  1.0000
  O2          0.20495      0.88878      0.26414  1.0000
  O2          0.57335      0.55883      0.98325  1.0000
  O2          0.41406      0.00429      0.32074  1.0000
  O2          0.97397      0.40560      0.65075  1.0000
  O2          0.39578      0.41418      0.47816  1.0000
  O2          0.56741      0.96912      0.82150  1.0000
  O2          0.98808      0.56194      0.15282  1.0000
  O2          0.53548      0.55174      0.33123  1.0000
  O2          0.00138      0.42822      0.00608  1.0000
  O2          0.40468      0.96753      0.66789  1.0000
  O2          0.43157      0.40570      0.84134  1.0000
  O2          0.96058      0.54163      0.50750  1.0000
  O2          0.56249      0.01741      0.17362  1.0000
  O2          0.55037      0.14681      0.24852  1.0000
  O2          0.83097      0.40646      0.58002  1.0000
  O2          0.57538      0.41727      0.91430  1.0000
  O2          0.41395      0.81361      0.74446  1.0000
  O2          0.12500      0.56247      0.08143  1.0000
  O2          0.39872      0.54587      0.40426  1.0000
  F           0.41939      0.87840      0.24382  1.0000
  F           0.12685      0.55356      0.58005  1.0000
  F           0.42750      0.56514      0.90475  1.0000
  F           0.54436      0.08309      0.74329  1.0000
  F           0.84550      0.42968      0.07103  1.0000
  F           0.53818      0.40380      0.39908  1.0000
