data_cif

_audit_creation_method             'generated by GULP'

_symmetry_space_group_name_H-M     'P 1'
_symmetry_Int_Tables_number        1
_symmetry_cell_setting             triclinic

_cell_length_a                       11.8943
_cell_length_b                       12.0139
_cell_length_c                       29.3653
_cell_angle_alpha                   89.8875
_cell_angle_beta                    90.0212
_cell_angle_gamma                  119.3401

loop_
_atom_site_label
_atom_site_fract_x
_atom_site_fract_y
_atom_site_fract_z
_atom_site_occupancy
  Si          0.69960      0.37570      0.03389  1.0000
  Ge          0.58945      0.30258      0.36598  1.0000
  Si          0.66760      0.27546      0.70182  1.0000
  Si          0.26279      0.58834      0.53949  1.0000
  Si          0.37498      0.64867      0.86770  1.0000
  Si          0.29055      0.68343      0.19715  1.0000
  Si          0.34474      0.68370      0.29787  1.0000
  Si          0.30296      0.61333      0.96334  1.0000
  Si          0.30147      0.65899      0.63536  1.0000
  Si          0.61358      0.27993      0.80212  1.0000
  Ge          0.66013      0.35212      0.46779  1.0000
  Si          0.66236      0.30508      0.12960  1.0000
  Si          0.52692      0.41290      0.96910  1.0000
  Si          0.54902      0.09479      0.29725  1.0000
  Si          0.88274      0.45126      0.63916  1.0000
  Si          0.43431      0.55855      0.47124  1.0000
  Si          0.41347      0.86044      0.80496  1.0000
  Si          0.08006      0.51126      0.13209  1.0000
  Si          0.37633      0.51222      0.36629  1.0000
  Si          0.08725      0.56783      0.02858  1.0000
  Si          0.46830      0.86896      0.70145  1.0000
  Si          0.57698      0.45998      0.86451  1.0000
  Si          0.87910      0.39666      0.53595  1.0000
  Si          0.49396      0.09167      0.19447  1.0000
  Si          0.29164      0.38505      0.84805  1.0000
  Si          0.56454      0.88200      0.17977  1.0000
  Si          0.08312      0.67798      0.51873  1.0000
  Ge          0.66905      0.58213      0.34833  1.0000
  Si          0.39315      0.07532      0.68603  1.0000
  Si          0.87848      0.28692      0.01237  1.0000
  Si          0.37135      0.27334      0.48336  1.0000
  Si          0.86408      0.58379      0.14435  1.0000
  Si          0.69240      0.07983      0.81604  1.0000
  Si          0.58574      0.69486      0.97756  1.0000
  Si          0.09984      0.38079      0.65106  1.0000
  Si          0.26661      0.88567      0.31074  1.0000
  Si          0.24255      0.33355      0.95073  1.0000
  Si          0.62338      0.88978      0.28026  1.0000
  Si          0.08374      0.72837      0.62163  1.0000
  Si          0.72153      0.64087      0.45368  1.0000
  Si          0.33708      0.06575      0.78729  1.0000
  Si          0.87793      0.23375      0.11513  1.0000
  Ge          0.29937      0.22435      0.37864  1.0000
  Si          0.88188      0.64735      0.04200  1.0000
  Si          0.74508      0.07205      0.71533  1.0000
  Si          0.65148      0.73990      0.87536  1.0000
  Si          0.08254      0.31612      0.54906  1.0000
  Si          0.21694      0.89032      0.20947  1.0000
  Si          0.96430      0.11436      0.96552  1.0000
  Si          0.84608      0.83399      0.29555  1.0000
  Si          0.14343      0.00462      0.63528  1.0000
  Si          0.99996      0.85088      0.46808  1.0000
  Si          0.11962      0.13014      0.80078  1.0000
  Si          0.81582      0.95521      0.13047  1.0000
  Si          0.07830      0.94111      0.36504  1.0000
  Si          0.83195      0.87264      0.02940  1.0000
  Si          0.02530      0.13083      0.70020  1.0000
  Si          0.87544      0.01369      0.86541  1.0000
  Si          0.12879      0.09008      0.53433  1.0000
  Si          0.93888      0.83273      0.19489  1.0000
  O2          0.92172      0.99858      0.00068  1.0000
  O2          0.95661      0.90155      0.33292  1.0000
  O2          0.06434      0.05137      0.66622  1.0000
  O2          0.05069      0.97598      0.49915  1.0000
  O2          0.99880      0.05555      0.83382  1.0000
  O2          0.89507      0.91409      0.16393  1.0000
  O2          0.30383      0.56776      0.33410  1.0000
  O2          0.42031      0.74363      0.66917  1.0000
  O2          0.21589      0.64503      0.99818  1.0000
  O2          0.65122      0.40344      0.83412  1.0000
  O2          0.54271      0.21876      0.16304  1.0000
  O2          0.75118      0.32110      0.50625  1.0000
  O3          0.56990      0.33567      0.00062  1.0000
  O2          0.75635      0.40150      0.67058  1.0000
  O3          0.63023      0.21115      0.32834  1.0000
  O3          0.38920      0.63143      0.50405  1.0000
  O2          0.20295      0.55879      0.16526  1.0000
  O3          0.33393      0.73844      0.83512  1.0000
  O2          0.11754      0.20810      0.97131  1.0000
  O2          0.75381      0.89639      0.30002  1.0000
  O2          0.08407      0.85255      0.64301  1.0000
  O2          0.84597      0.76588      0.47541  1.0000
  O2          0.20983      0.06615      0.80748  1.0000
  O2          0.87617      0.10809      0.13587  1.0000
  O2          0.15698      0.09329      0.36240  1.0000
  O2          0.89358      0.78010      0.02387  1.0000
  O2          0.87202      0.07248      0.69479  1.0000
  O2          0.78556      0.86161      0.85848  1.0000
  O2          0.06325      0.17980      0.53183  1.0000
  O2          0.09156      0.89051      0.18760  1.0000
  O2          0.90953      0.85245      0.24628  1.0000
  O2          0.12124      0.03042      0.58356  1.0000
  O2          0.92800      0.05138      0.91629  1.0000
  O2          0.06490      0.11188      0.75010  1.0000
  O2          0.83655      0.91795      0.08055  1.0000
  O2          0.03187      0.89272      0.41598  1.0000
  O2          0.89014      0.19437      0.97484  1.0000
  O2          0.76310      0.68528      0.30615  1.0000
  O2          0.29534      0.07548      0.64699  1.0000
  O2          0.07097      0.77009      0.48102  1.0000
  O2          0.19913      0.28130      0.81078  1.0000
  O2          0.66323      0.88409      0.14083  1.0000
  O2          0.16824      0.88183      0.34973  1.0000
  O2          0.68224      0.79664      0.01479  1.0000
  O2          0.09811      0.28256      0.68928  1.0000
  O2          0.79340      0.08434      0.85432  1.0000
  O2          0.27948      0.17888      0.52323  1.0000
  O2          0.86532      0.68165      0.18270  1.0000
  O2          0.29077      0.62349      0.24725  1.0000
  O3          0.35541      0.65947      0.58488  1.0000
  O3          0.29848      0.66534      0.91337  1.0000
  O2          0.66741      0.33640      0.75132  1.0000
  O3          0.60753      0.30413      0.07940  1.0000
  O3          0.66513      0.28906      0.41578  1.0000
  O2          0.36871      0.33077      0.96849  1.0000
  O2          0.63212      0.01985      0.29720  1.0000
  O2          0.95361      0.60600      0.64016  1.0000
  O2          0.59242      0.64150      0.47003  1.0000
  O2          0.32902      0.93544      0.80498  1.0000
  O2          0.00905      0.35639      0.13295  1.0000
  O2          0.29086      0.35876      0.36287  1.0000
  O2          0.01520      0.65244      0.02588  1.0000
  O2          0.62471      0.94083      0.69656  1.0000
  O2          0.66056      0.61439      0.85958  1.0000
  O2          0.95073      0.31236      0.53241  1.0000
  O2          0.33760      0.01990      0.18980  1.0000
  O3          0.74644      0.28854      0.00330  1.0000
  O3          0.67746      0.44734      0.33692  1.0000
  O2          0.52658      0.20839      0.67721  1.0000
  O3          0.21511      0.67652      0.50956  1.0000
  O3          0.28868      0.51522      0.83794  1.0000
  O2          0.43049      0.74949      0.17161  1.0000
  O2          0.26738      0.75251      0.31782  1.0000
  O2          0.44928      0.69225      0.98396  1.0000
  O2          0.23284      0.51410      0.65662  1.0000
  O2          0.69178      0.21319      0.82369  1.0000
  O2          0.50453      0.27145      0.48928  1.0000
  O2          0.73104      0.45025      0.15058  1.0000
  O3          0.75642      0.53035      0.02017  1.0000
  O3          0.42318      0.21336      0.35389  1.0000
  O2          0.74884      0.19974      0.69552  1.0000
  O3          0.20819      0.43308      0.52694  1.0000
  O3          0.53101      0.74437      0.85315  1.0000
  O2          0.21017      0.76005      0.19133  1.0000
  O2          0.50111      0.76384      0.30140  1.0000
  O2          0.23998      0.45913      0.96860  1.0000
  O2          0.20921      0.72356      0.63911  1.0000
  O2          0.45850      0.19379      0.80714  1.0000
  O2          0.72584      0.51645      0.47121  1.0000
  O2          0.75415      0.23999      0.13369  1.0000
  O2          0.22552      0.31807      0.89619  1.0000
  O2          0.63909      0.88165      0.22576  1.0000
  O2          0.08089      0.74283      0.56709  1.0000
  O2          0.73913      0.65600      0.39929  1.0000
  O2          0.31933      0.07166      0.73268  1.0000
  O2          0.87921      0.22008      0.06057  1.0000
  O2          0.29642      0.20792      0.43714  1.0000
  O2          0.87175      0.65552      0.09702  1.0000
  O2          0.76413      0.07407      0.76981  1.0000
  O2          0.65798      0.75774      0.93028  1.0000
  O2          0.09217      0.30839      0.60401  1.0000
  O2          0.19771      0.89244      0.26390  1.0000
  O2          0.56861      0.55602      0.98698  1.0000
  O2          0.40596      0.00635      0.31930  1.0000
  O2          0.97851      0.40339      0.65890  1.0000
  O2          0.39485      0.41603      0.48885  1.0000
  O2          0.55563      0.95618      0.82588  1.0000
  O2          0.98508      0.56036      0.15155  1.0000
  O2          0.51561      0.56076      0.34397  1.0000
  O2          0.00326      0.42777      0.00631  1.0000
  O2          0.40688      0.94967      0.67778  1.0000
  O2          0.43518      0.40362      0.84210  1.0000
  O2          0.95960      0.53653      0.51263  1.0000
  O2          0.55383      0.00942      0.17123  1.0000
  O2          0.54157      0.14152      0.24543  1.0000
  O2          0.83701      0.40215      0.58787  1.0000
  O2          0.57581      0.41878      0.91679  1.0000
  O2          0.42073      0.81808      0.75245  1.0000
  O2          0.12862      0.56177      0.08081  1.0000
  O2          0.38317      0.55490      0.41903  1.0000
  F           0.41264      0.87510      0.24266  1.0000
  F           0.11783      0.53430      0.57711  1.0000
  F           0.43158      0.56087      0.90579  1.0000
  F           0.54967      0.08520      0.74882  1.0000
  F           0.84487      0.42880      0.07120  1.0000
  F           0.53364      0.40172      0.40728  1.0000
