data_cif

_audit_creation_method             'generated by GULP'

_symmetry_space_group_name_H-M     'P 1'
_symmetry_Int_Tables_number        1
_symmetry_cell_setting             triclinic

_cell_length_a                       11.9164
_cell_length_b                       11.9828
_cell_length_c                       29.3585
_cell_angle_alpha                   89.9920
_cell_angle_beta                    89.9150
_cell_angle_gamma                  119.2375

loop_
_atom_site_label
_atom_site_fract_x
_atom_site_fract_y
_atom_site_fract_z
_atom_site_occupancy
  Si          0.69960      0.37570      0.03389  1.0000
  Ge          0.58451      0.30156      0.36644  1.0000
  Si          0.66941      0.27580      0.70164  1.0000
  Si          0.25857      0.58536      0.53793  1.0000
  Si          0.37648      0.64709      0.86672  1.0000
  Si          0.29370      0.68332      0.19523  1.0000
  Si          0.34375      0.67682      0.29610  1.0000
  Si          0.30304      0.61346      0.96225  1.0000
  Si          0.30203      0.65929      0.63356  1.0000
  Si          0.61390      0.27767      0.80198  1.0000
  Ge          0.65875      0.34379      0.46770  1.0000
  Si          0.66497      0.30634      0.12983  1.0000
  Si          0.52556      0.41122      0.96933  1.0000
  Si          0.54608      0.09058      0.29770  1.0000
  Si          0.88392      0.45250      0.63927  1.0000
  Si          0.42465      0.55365      0.46751  1.0000
  Si          0.41517      0.85804      0.80333  1.0000
  Si          0.08230      0.51268      0.13058  1.0000
  Si          0.37355      0.49993      0.36261  1.0000
  Si          0.08681      0.56820      0.02709  1.0000
  Si          0.47091      0.86888      0.69973  1.0000
  Si          0.57656      0.45717      0.86468  1.0000
  Si          0.87695      0.39383      0.53615  1.0000
  Si          0.49645      0.09202      0.19465  1.0000
  Si          0.29241      0.38243      0.84766  1.0000
  Si          0.56728      0.88203      0.17956  1.0000
  Si          0.07941      0.67540      0.51761  1.0000
  Ge          0.66893      0.57887      0.34260  1.0000
  Si          0.39621      0.07622      0.68541  1.0000
  Si          0.87812      0.28695      0.01144  1.0000
  Si          0.36919      0.27007      0.47838  1.0000
  Si          0.86702      0.58559      0.14402  1.0000
  Si          0.69323      0.07722      0.81494  1.0000
  Si          0.58466      0.69422      0.97718  1.0000
  Si          0.10047      0.38172      0.65097  1.0000
  Si          0.26503      0.87941      0.30958  1.0000
  Si          0.24235      0.33249      0.95040  1.0000
  Si          0.62224      0.88626      0.28029  1.0000
  Si          0.08427      0.72909      0.62045  1.0000
  Ge          0.71898      0.63999      0.45131  1.0000
  Si          0.33822      0.06385      0.78659  1.0000
  Si          0.87980      0.23490      0.11417  1.0000
  Si          0.29994      0.21832      0.37600  1.0000
  Si          0.88166      0.64736      0.04154  1.0000
  Si          0.74698      0.07158      0.71412  1.0000
  Si          0.65197      0.73808      0.87505  1.0000
  Si          0.08074      0.31387      0.54923  1.0000
  Si          0.21956      0.88985      0.20820  1.0000
  Si          0.96405      0.11417      0.96453  1.0000
  Si          0.84937      0.83620      0.29434  1.0000
  Si          0.14797      0.00720      0.63442  1.0000
  Si          0.00477      0.85445      0.46656  1.0000
  Si          0.12031      0.12751      0.79995  1.0000
  Si          0.81839      0.95647      0.12973  1.0000
  Si          0.08290      0.94396      0.36340  1.0000
  Si          0.83075      0.87236      0.02848  1.0000
  Si          0.02736      0.13156      0.69946  1.0000
  Si          0.87635      0.01158      0.86447  1.0000
  Si          0.13164      0.09119      0.53327  1.0000
  Si          0.94336      0.83610      0.19408  1.0000
  O2          0.92008      0.99741      0.99931  1.0000
  O2          0.95849      0.90333      0.33238  1.0000
  O2          0.06795      0.05449      0.66473  1.0000
  O2          0.05321      0.97608      0.49895  1.0000
  O2          0.99875      0.05203      0.83253  1.0000
  O2          0.89976      0.91606      0.16228  1.0000
  O2          0.30109      0.55517      0.33004  1.0000
  O2          0.42209      0.74426      0.66674  1.0000
  O2          0.21477      0.64546      0.99644  1.0000
  O2          0.65117      0.40037      0.83450  1.0000
  O2          0.54649      0.22036      0.16366  1.0000
  O2          0.74811      0.31385      0.50725  1.0000
  O3          0.56890      0.33486      0.00109  1.0000
  O2          0.75837      0.40320      0.67097  1.0000
  O3          0.62184      0.20562      0.32977  1.0000
  O3          0.37769      0.62620      0.49994  1.0000
  O2          0.20622      0.55950      0.16290  1.0000
  O3          0.33573      0.73563      0.83324  1.0000
  O2          0.11675      0.20771      0.97090  1.0000
  O2          0.75257      0.89330      0.30028  1.0000
  O2          0.08674      0.85456      0.64191  1.0000
  O2          0.85202      0.77302      0.47298  1.0000
  O2          0.21039      0.06324      0.80660  1.0000
  O2          0.87857      0.10952      0.13507  1.0000
  O2          0.16436      0.09713      0.35984  1.0000
  O2          0.89206      0.77939      0.02304  1.0000
  O2          0.87438      0.07262      0.69378  1.0000
  O2          0.78649      0.85904      0.85826  1.0000
  O2          0.06218      0.17740      0.53232  1.0000
  O2          0.09528      0.89207      0.18649  1.0000
  O2          0.91521      0.86108      0.24518  1.0000
  O2          0.13108      0.03474      0.58247  1.0000
  O2          0.93004      0.05212      0.91505  1.0000
  O2          0.06660      0.11046      0.74913  1.0000
  O2          0.83655      0.91907      0.07948  1.0000
  O2          0.03929      0.89916      0.41479  1.0000
  O2          0.88957      0.19417      0.97370  1.0000
  O2          0.76655      0.68498      0.30162  1.0000
  O2          0.29890      0.07740      0.64661  1.0000
  O2          0.06921      0.76718      0.47929  1.0000
  O2          0.19984      0.27858      0.81041  1.0000
  O2          0.66685      0.88483      0.14092  1.0000
  O2          0.16551      0.87682      0.34792  1.0000
  O2          0.68106      0.79642      0.01430  1.0000
  O2          0.09917      0.28413      0.68947  1.0000
  O2          0.79392      0.08163      0.85311  1.0000
  O2          0.27874      0.17823      0.51871  1.0000
  O2          0.86940      0.68413      0.18257  1.0000
  O2          0.29176      0.62086      0.24496  1.0000
  O3          0.35342      0.65725      0.58276  1.0000
  O3          0.29996      0.66531      0.91208  1.0000
  O2          0.66821      0.33557      0.75135  1.0000
  O3          0.60924      0.30500      0.07974  1.0000
  O3          0.66313      0.28374      0.41496  1.0000
  O2          0.36766      0.32929      0.96861  1.0000
  O2          0.62949      0.01566      0.29784  1.0000
  O2          0.95508      0.60758      0.63991  1.0000
  O2          0.58037      0.63943      0.46730  1.0000
  O2          0.33056      0.93298      0.80362  1.0000
  O2          0.01104      0.35762      0.13147  1.0000
  O2          0.29103      0.34487      0.36054  1.0000
  O2          0.01425      0.65254      0.02468  1.0000
  O2          0.62704      0.94061      0.69486  1.0000
  O2          0.66044      0.61167      0.85960  1.0000
  O2          0.94921      0.31002      0.53265  1.0000
  O2          0.34062      0.02074      0.18963  1.0000
  O3          0.74605      0.28846      0.00288  1.0000
  O3          0.67249      0.44013      0.33343  1.0000
  O2          0.52922      0.20960      0.67678  1.0000
  O3          0.21041      0.67358      0.50830  1.0000
  O3          0.29013      0.51300      0.83719  1.0000
  O2          0.43422      0.74952      0.17033  1.0000
  O2          0.26657      0.74587      0.31666  1.0000
  O2          0.44857      0.69232      0.98318  1.0000
  O2          0.23355      0.51510      0.65555  1.0000
  O2          0.69204      0.21043      0.82307  1.0000
  O2          0.49994      0.26521      0.48592  1.0000
  O2          0.73439      0.45206      0.15064  1.0000
  O3          0.75558      0.53016      0.02015  1.0000
  O3          0.41383      0.20738      0.35373  1.0000
  O2          0.75072      0.20002      0.69481  1.0000
  O3          0.20574      0.42953      0.52659  1.0000
  O3          0.53231      0.74277      0.85245  1.0000
  O2          0.21415      0.76082      0.18895  1.0000
  O2          0.49982      0.75846      0.30050  1.0000
  O2          0.24008      0.45907      0.96773  1.0000
  O2          0.21048      0.72475      0.63703  1.0000
  O2          0.45917      0.19133      0.80685  1.0000
  O2          0.72190      0.50705      0.47096  1.0000
  O2          0.75664      0.24110      0.13329  1.0000
  O2          0.22630      0.31605      0.89583  1.0000
  O2          0.63999      0.88016      0.22578  1.0000
  O2          0.07724      0.74117      0.56592  1.0000
  O2          0.73755      0.65277      0.39331  1.0000
  O2          0.32175      0.07156      0.73202  1.0000
  O2          0.87961      0.22018      0.05957  1.0000
  O2          0.29703      0.20516      0.43139  1.0000
  O2          0.87339      0.65669      0.09662  1.0000
  O2          0.76501      0.07214      0.76859  1.0000
  O2          0.65743      0.75663      0.92993  1.0000
  O2          0.09076      0.30718      0.60418  1.0000
  O2          0.19727      0.88649      0.26259  1.0000
  O2          0.56685      0.55495      0.98684  1.0000
  O2          0.40292      0.00029      0.31876  1.0000
  O2          0.98001      0.40531      0.65904  1.0000
  O2          0.39057      0.41174      0.48464  1.0000
  O2          0.55680      0.95330      0.82438  1.0000
  O2          0.98802      0.56213      0.15065  1.0000
  O2          0.51278      0.55139      0.34014  1.0000
  O2          0.00258      0.42774      0.00499  1.0000
  O2          0.40983      0.95042      0.67651  1.0000
  O2          0.43556      0.40053      0.84189  1.0000
  O2          0.95539      0.53337      0.51214  1.0000
  O2          0.55677      0.00999      0.17127  1.0000
  O2          0.54216      0.13960      0.24591  1.0000
  O2          0.83681      0.40193      0.58815  1.0000
  O2          0.57440      0.41607      0.91700  1.0000
  O2          0.42324      0.81673      0.75061  1.0000
  O2          0.12918      0.56283      0.07915  1.0000
  O2          0.37657      0.54623      0.41465  1.0000
  F           0.41342      0.87235      0.24169  1.0000
  F           0.11566      0.53274      0.57623  1.0000
  F           0.43200      0.55931      0.90519  1.0000
  F           0.55142      0.08439      0.74768  1.0000
  F           0.84586      0.42930      0.07059  1.0000
  F           0.53552      0.39950      0.40506  1.0000
