data_cif

_audit_creation_method             'generated by GULP'

_symmetry_space_group_name_H-M     'P 1'
_symmetry_Int_Tables_number        1
_symmetry_cell_setting             triclinic

_cell_length_a                       11.9000
_cell_length_b                       12.0448
_cell_length_c                       29.4603
_cell_angle_alpha                   90.0000
_cell_angle_beta                    90.0000
_cell_angle_gamma                  119.5784

loop_
_atom_site_label
_atom_site_fract_x
_atom_site_fract_y
_atom_site_fract_z
_atom_site_occupancy
  Ge          0.69960      0.37570      0.03389  1.0000
  Ge          0.58404      0.30655      0.36600  1.0000
  Si          0.66949      0.27597      0.69708  1.0000
  Ge          0.26114      0.58375      0.53389  1.0000
  Ge          0.37670      0.65289      0.86600  1.0000
  Si          0.29125      0.68348      0.19708  1.0000
  Si          0.34404      0.67674      0.29716  1.0000
  Si          0.30345      0.61406      0.96393  1.0000
  Si          0.30319      0.65951      0.63163  1.0000
  Si          0.61670      0.28271      0.79716  1.0000
  Si          0.65728      0.34538      0.46393  1.0000
  Si          0.65755      0.29993      0.13163  1.0000
  Si          0.52685      0.41232      0.96347  1.0000
  Si          0.54708      0.09125      0.30082  1.0000
  Si          0.88139      0.45017      0.63300  1.0000
  Si          0.43389      0.54713      0.46347  1.0000
  Si          0.41366      0.86820      0.80082  1.0000
  Si          0.07935      0.50928      0.13300  1.0000
  Si          0.38150      0.49780      0.35977  1.0000
  Si          0.08867      0.56701      0.02991  1.0000
  Si          0.46689      0.86997      0.69829  1.0000
  Si          0.57924      0.46164      0.85977  1.0000
  Si          0.87206      0.39244      0.52991  1.0000
  Si          0.49384      0.08948      0.19829  1.0000
  Si          0.29013      0.38459      0.84272  1.0000
  Si          0.56708      0.88320      0.18156  1.0000
  Si          0.07922      0.67612      0.51153  1.0000
  Si          0.67060      0.57486      0.34272  1.0000
  Si          0.39366      0.07625      0.68156  1.0000
  Si          0.88152      0.28333      0.01153  1.0000
  Si          0.37037      0.26433      0.47429  1.0000
  Si          0.86365      0.58149      0.14468  1.0000
  Si          0.69504      0.08280      0.81215  1.0000
  Si          0.59037      0.69512      0.97429  1.0000
  Si          0.09709      0.37796      0.64468  1.0000
  Si          0.26570      0.87665      0.31215  1.0000
  Si          0.24316      0.33451      0.94587  1.0000
  Si          0.62246      0.88843      0.28223  1.0000
  Si          0.08344      0.72731      0.61502  1.0000
  Si          0.71758      0.62493      0.44587  1.0000
  Si          0.33828      0.07102      0.78223  1.0000
  Si          0.87729      0.23214      0.11502  1.0000
  Si          0.30051      0.21519      0.37183  1.0000
  Si          0.88811      0.65449      0.04252  1.0000
  Si          0.74527      0.07218      0.71142  1.0000
  Si          0.66023      0.74426      0.87183  1.0000
  Si          0.07262      0.30496      0.54252  1.0000
  Si          0.21546      0.88727      0.21142  1.0000
  Si          0.96824      0.11397      0.96263  1.0000
  Si          0.84140      0.82834      0.29502  1.0000
  Si          0.14446      0.00430      0.62981  1.0000
  Si          0.99249      0.84548      0.46263  1.0000
  Si          0.11934      0.13111      0.79502  1.0000
  Si          0.81628      0.95515      0.12981  1.0000
  Si          0.08092      0.94178      0.36189  1.0000
  Si          0.83625      0.87613      0.02831  1.0000
  Si          0.02434      0.12899      0.69447  1.0000
  Si          0.87981      0.01767      0.86189  1.0000
  Si          0.12448      0.08332      0.52831  1.0000
  Si          0.93640      0.83045      0.19447  1.0000
  O2          0.92507      0.99810      0.99759  1.0000
  O2          0.95976      0.89807      0.32919  1.0000
  O2          0.06280      0.04875      0.66061  1.0000
  O2          0.03567      0.96135      0.49759  1.0000
  O2          0.00097      0.06138      0.82919  1.0000
  O2          0.89794      0.91070      0.16061  1.0000
  O2          0.30718      0.55302      0.32887  1.0000
  O2          0.41612      0.74166      0.66782  1.0000
  O2          0.22114      0.64278      0.00153  1.0000
  O2          0.65356      0.40642      0.82887  1.0000
  O2          0.54461      0.21779      0.16782  1.0000
  O2          0.73960      0.31666      0.50153  1.0000
  O3          0.56882      0.33763      0.99605  1.0000
  O2          0.75670      0.40070      0.66526  1.0000
  O3          0.62477      0.20976      0.33212  1.0000
  O3          0.39192      0.62182      0.49605  1.0000
  O2          0.20404      0.55875      0.16526  1.0000
  O3          0.33596      0.74969      0.83212  1.0000
  O2          0.12191      0.20738      0.96723  1.0000
  O2          0.75121      0.89155      0.30215  1.0000
  O2          0.08421      0.85184      0.63618  1.0000
  O2          0.83882      0.75207      0.46723  1.0000
  O2          0.20953      0.06789      0.80215  1.0000
  O2          0.87653      0.10761      0.13618  1.0000
  O2          0.16333      0.09463      0.35634  1.0000
  O2          0.90771      0.79235      0.02716  1.0000
  O2          0.87037      0.07009      0.69036  1.0000
  O2          0.79741      0.86482      0.85634  1.0000
  O2          0.05303      0.16710      0.52716  1.0000
  O2          0.09036      0.88936      0.19036  1.0000
  O2          0.89629      0.84786      0.24443  1.0000
  O2          0.13045      0.03570      0.57830  1.0000
  O2          0.93099      0.05618      0.91275  1.0000
  O2          0.06445      0.11159      0.74443  1.0000
  O2          0.83028      0.92375      0.07830  1.0000
  O2          0.02975      0.90327      0.41275  1.0000
  O2          0.89714      0.19459      0.97379  1.0000
  O2          0.75897      0.67787      0.30473  1.0000
  O2          0.29580      0.07528      0.64266  1.0000
  O2          0.06360      0.76486      0.47379  1.0000
  O2          0.20177      0.28158      0.80473  1.0000
  O2          0.66493      0.88417      0.14266  1.0000
  O2          0.16663      0.87530      0.35048  1.0000
  O2          0.68841      0.79328      0.01197  1.0000
  O2          0.09582      0.28002      0.68279  1.0000
  O2          0.79411      0.08415      0.85048  1.0000
  O2          0.27232      0.16617      0.51197  1.0000
  O2          0.86492      0.67943      0.18279  1.0000
  O2          0.29060      0.62150      0.24636  1.0000
  O3          0.36113      0.66237      0.58285  1.0000
  O3          0.29481      0.66784      0.91589  1.0000
  O2          0.67014      0.33795      0.74636  1.0000
  O3          0.59961      0.29708      0.08285  1.0000
  O3          0.66593      0.29161      0.41589  1.0000
  O2          0.36948      0.33082      0.96229  1.0000
  O2          0.63235      0.01853      0.30018  1.0000
  O2          0.95327      0.60480      0.63383  1.0000
  O2          0.59125      0.62863      0.46229  1.0000
  O2          0.32838      0.94092      0.80018  1.0000
  O2          0.00746      0.35465      0.13383  1.0000
  O2          0.29566      0.34340      0.35656  1.0000
  O2          0.01988      0.65406      0.02708  1.0000
  O2          0.62337      0.94130      0.69296  1.0000
  O2          0.66508      0.61605      0.85656  1.0000
  O2          0.94086      0.30538      0.52708  1.0000
  O2          0.33737      0.01815      0.19296  1.0000
  O3          0.75012      0.28055      0.00177  1.0000
  O3          0.67667      0.44913      0.33301  1.0000
  O2          0.52836      0.20800      0.67245  1.0000
  O3          0.21062      0.67890      0.50177  1.0000
  O3          0.28406      0.51032      0.83301  1.0000
  O2          0.43238      0.75145      0.17245  1.0000
  O2          0.26508      0.74236      0.31881  1.0000
  O2          0.45377      0.69144      0.98197  1.0000
  O2          0.23014      0.51147      0.65061  1.0000
  O2          0.69566      0.21709      0.81881  1.0000
  O2          0.50696      0.26801      0.48197  1.0000
  O2          0.73060      0.44798      0.15061  1.0000
  O3          0.76387      0.54341      0.01976  1.0000
  O3          0.41571      0.20664      0.34939  1.0000
  O2          0.75027      0.20000      0.69164  1.0000
  O3          0.19687      0.41604      0.51976  1.0000
  O3          0.54502      0.75281      0.84939  1.0000
  O2          0.21046      0.75945      0.19164  1.0000
  O2          0.49979      0.76119      0.30224  1.0000
  O2          0.24161      0.45880      0.96535  1.0000
  O2          0.20847      0.72211      0.63249  1.0000
  O2          0.46095      0.19826      0.80224  1.0000
  O2          0.71913      0.50065      0.46535  1.0000
  O2          0.75227      0.23734      0.13249  1.0000
  O2          0.22485      0.32036      0.89148  1.0000
  O2          0.63986      0.88294      0.22783  1.0000
  O2          0.07820      0.73895      0.56063  1.0000
  O2          0.73588      0.63909      0.39148  1.0000
  O2          0.32087      0.07651      0.72783  1.0000
  O2          0.88254      0.22050      0.06063  1.0000
  O2          0.30074      0.20050      0.42698  1.0000
  O2          0.87373      0.65389      0.09764  1.0000
  O2          0.76472      0.07512      0.76578  1.0000
  O2          0.65999      0.75894      0.92698  1.0000
  O2          0.08701      0.30556      0.59764  1.0000
  O2          0.19601      0.88433      0.26578  1.0000
  O2          0.57110      0.55521      0.98168  1.0000
  O2          0.40482      0.99700      0.32221  1.0000
  O2          0.97657      0.40168      0.65228  1.0000
  O2          0.38963      0.40423      0.48168  1.0000
  O2          0.55591      0.96245      0.82221  1.0000
  O2          0.98417      0.55777      0.15228  1.0000
  O2          0.52391      0.55111      0.33836  1.0000
  O2          0.00344      0.42814      0.00694  1.0000
  O2          0.40507      0.94923      0.67421  1.0000
  O2          0.43683      0.40834      0.83836  1.0000
  O2          0.95730      0.53131      0.50694  1.0000
  O2          0.55567      0.01022      0.17421  1.0000
  O2          0.54046      0.13824      0.24929  1.0000
  O2          0.83368      0.40064      0.58196  1.0000
  O2          0.57757      0.41788      0.91164  1.0000
  O2          0.42027      0.82121      0.74929  1.0000
  O2          0.12706      0.55881      0.08196  1.0000
  O2          0.38316      0.54156      0.41164  1.0000
  F           0.41151      0.87293      0.24461  1.0000
  F           0.11899      0.53240      0.57075  1.0000
  F           0.43179      0.56461      0.90226  1.0000
  F           0.54922      0.08652      0.74461  1.0000
  F           0.84174      0.42705      0.07075  1.0000
  F           0.52895      0.39484      0.40226  1.0000
