data_cif

_audit_creation_method             'generated by GULP'

_symmetry_space_group_name_H-M     'P 1'
_symmetry_Int_Tables_number        1
_symmetry_cell_setting             triclinic

_cell_length_a                       11.9156
_cell_length_b                       11.9813
_cell_length_c                       29.4499
_cell_angle_alpha                   90.2458
_cell_angle_beta                    89.9578
_cell_angle_gamma                  119.3657

loop_
_atom_site_label
_atom_site_fract_x
_atom_site_fract_y
_atom_site_fract_z
_atom_site_occupancy
  Si          0.69960      0.37570      0.03389  1.0000
  Si          0.58311      0.31374      0.36268  1.0000
  Si          0.66809      0.28543      0.69323  1.0000
  Si          0.26051      0.59223      0.52681  1.0000
  Ge          0.36549      0.65001      0.87218  1.0000
  Si          0.28966      0.68658      0.19697  1.0000
  Si          0.34448      0.68328      0.29666  1.0000
  Si          0.29966      0.61037      0.97007  1.0000
  Ge          0.29944      0.66711      0.62493  1.0000
  Si          0.61497      0.29138      0.79543  1.0000
  Si          0.65334      0.35099      0.45825  1.0000
  Si          0.65543      0.30263      0.12924  1.0000
  Si          0.53103      0.41218      0.96598  1.0000
  Si          0.54394      0.10264      0.29918  1.0000
  Si          0.87741      0.45505      0.62710  1.0000
  Si          0.43133      0.55277      0.46173  1.0000
  Ge          0.41309      0.86694      0.80330  1.0000
  Si          0.07262      0.50862      0.13598  1.0000
  Si          0.38251      0.50253      0.35755  1.0000
  Si          0.08326      0.56601      0.03309  1.0000
  Ge          0.47264      0.88344      0.69836  1.0000
  Si          0.57461      0.46492      0.86175  1.0000
  Si          0.86757      0.39667      0.52399  1.0000
  Si          0.48913      0.09348      0.19586  1.0000
  Si          0.28436      0.38313      0.84775  1.0000
  Si          0.56327      0.88567      0.18090  1.0000
  Si          0.07633      0.67755      0.50763  1.0000
  Si          0.66719      0.57762      0.34222  1.0000
  Si          0.38746      0.08217      0.67664  1.0000
  Si          0.87894      0.28573      0.01376  1.0000
  Si          0.37067      0.27015      0.47191  1.0000
  Si          0.85781      0.58131      0.14608  1.0000
  Si          0.70248      0.09479      0.81251  1.0000
  Si          0.58674      0.69523      0.97664  1.0000
  Si          0.09229      0.38051      0.63928  1.0000
  Si          0.26457      0.88312      0.31063  1.0000
  Si          0.24478      0.33160      0.95120  1.0000
  Si          0.62100      0.89696      0.28182  1.0000
  Si          0.07521      0.73528      0.60970  1.0000
  Si          0.71548      0.63197      0.44466  1.0000
  Si          0.33361      0.07404      0.77901  1.0000
  Si          0.87260      0.23223      0.11631  1.0000
  Si          0.30709      0.22268      0.36981  1.0000
  Si          0.88053      0.64798      0.04420  1.0000
  Si          0.75171      0.08237      0.71062  1.0000
  Si          0.65205      0.74891      0.87408  1.0000
  Si          0.07412      0.31941      0.53710  1.0000
  Si          0.21237      0.89040      0.21001  1.0000
  Si          0.96661      0.11512      0.96447  1.0000
  Si          0.83895      0.83309      0.29565  1.0000
  Si          0.13923      0.01484      0.62626  1.0000
  Si          0.99339      0.85159      0.46067  1.0000
  Si          0.11529      0.13518      0.79553  1.0000
  Si          0.81206      0.95493      0.13040  1.0000
  Si          0.08221      0.94934      0.36049  1.0000
  Si          0.83222      0.87430      0.02912  1.0000
  Si          0.02933      0.14125      0.69371  1.0000
  Si          0.87982      0.02299      0.86282  1.0000
  Si          0.12520      0.09478      0.52460  1.0000
  Si          0.93252      0.83183      0.19531  1.0000
  O2          0.92008      0.99387      0.99721  1.0000
  O2          0.95789      0.90696      0.32947  1.0000
  O2          0.06190      0.05342      0.66150  1.0000
  O2          0.03553      0.96612      0.49678  1.0000
  O2          0.99520      0.05399      0.82824  1.0000
  O2          0.89252      0.91098      0.16168  1.0000
  O2          0.30719      0.55861      0.32778  1.0000
  O2          0.42270      0.75524      0.66074  1.0000
  O2          0.21929      0.64204      0.00746  1.0000
  O2          0.64764      0.41293      0.82784  1.0000
  O2          0.53684      0.21812      0.16300  1.0000
  O2          0.73873      0.31924      0.49376  1.0000
  O3          0.57624      0.33671      0.99703  1.0000
  O2          0.75428      0.40715      0.66058  1.0000
  O3          0.62384      0.22429      0.32962  1.0000
  O3          0.38471      0.63054      0.49072  1.0000
  O2          0.19903      0.55796      0.16700  1.0000
  O3          0.32835      0.74995      0.84133  1.0000
  O2          0.12002      0.20509      0.97147  1.0000
  O2          0.74829      0.89685      0.30184  1.0000
  O2          0.07419      0.86097      0.62969  1.0000
  O2          0.83974      0.75852      0.46522  1.0000
  O2          0.20856      0.07494      0.79996  1.0000
  O2          0.87099      0.10744      0.13750  1.0000
  O2          0.17305      0.10118      0.35281  1.0000
  O2          0.89539      0.78246      0.02663  1.0000
  O2          0.87819      0.08748      0.68935  1.0000
  O2          0.78778      0.87050      0.85831  1.0000
  O2          0.06370      0.18710      0.51818  1.0000
  O2          0.08539      0.88956      0.18948  1.0000
  O2          0.89553      0.85221      0.24534  1.0000
  O2          0.12328      0.05676      0.57660  1.0000
  O2          0.93535      0.06417      0.91321  1.0000
  O2          0.06817      0.12960      0.74447  1.0000
  O2          0.83267      0.92583      0.07909  1.0000
  O2          0.03267      0.91571      0.41172  1.0000
  O2          0.89295      0.19453      0.97589  1.0000
  O2          0.75987      0.68130      0.30505  1.0000
  O2          0.29078      0.08685      0.63859  1.0000
  O2          0.06520      0.76960      0.46974  1.0000
  O2          0.19276      0.28274      0.80978  1.0000
  O2          0.66054      0.88408      0.14209  1.0000
  O2          0.16334      0.87784      0.34883  1.0000
  O2          0.68366      0.79449      0.01425  1.0000
  O2          0.09893      0.28920      0.67843  1.0000
  O2          0.80462      0.10053      0.85043  1.0000
  O2          0.27425      0.16915      0.50928  1.0000
  O2          0.85817      0.67960      0.18409  1.0000
  O2          0.29039      0.62603      0.24618  1.0000
  O3          0.35301      0.66425      0.56970  1.0000
  O3          0.28454      0.66150      0.92262  1.0000
  O2          0.66400      0.33914      0.74377  1.0000
  O3          0.60436      0.30312      0.07834  1.0000
  O3          0.65797      0.29703      0.40861  1.0000
  O2          0.37289      0.32905      0.96632  1.0000
  O2          0.62859      0.02783      0.29902  1.0000
  O2          0.94548      0.60993      0.62774  1.0000
  O2          0.58941      0.63458      0.46222  1.0000
  O2          0.32287      0.94554      0.79833  1.0000
  O2          0.00181      0.35348      0.13597  1.0000
  O2          0.29874      0.34771      0.35288  1.0000
  O2          0.01279      0.65155      0.02774  1.0000
  O2          0.63961      0.94893      0.69131  1.0000
  O2          0.65802      0.61970      0.85888  1.0000
  O2          0.94067      0.31320      0.52089  1.0000
  O2          0.33284      0.02174      0.19120  1.0000
  O3          0.74774      0.28781      0.00385  1.0000
  O3          0.67072      0.44715      0.33292  1.0000
  O2          0.52522      0.21401      0.67102  1.0000
  O3          0.20716      0.67586      0.49741  1.0000
  O3          0.27450      0.50733      0.83884  1.0000
  O2          0.42975      0.75245      0.17192  1.0000
  O2          0.26614      0.74991      0.31821  1.0000
  O2          0.45064      0.68973      0.98646  1.0000
  O2          0.22481      0.51111      0.64522  1.0000
  O2          0.69590      0.22692      0.81589  1.0000
  O2          0.50706      0.27309      0.47862  1.0000
  O2          0.72333      0.44846      0.15007  1.0000
  O3          0.75484      0.53128      0.02191  1.0000
  O3          0.42735      0.21672      0.34837  1.0000
  O2          0.74422      0.20540      0.69136  1.0000
  O3          0.19967      0.43564      0.51521  1.0000
  O3          0.53418      0.75301      0.85258  1.0000
  O2          0.20823      0.76213      0.19018  1.0000
  O2          0.49937      0.76964      0.30187  1.0000
  O2          0.24322      0.45549      0.97184  1.0000
  O2          0.19930      0.73375      0.62866  1.0000
  O2          0.46164      0.19914      0.79758  1.0000
  O2          0.71764      0.50597      0.46266  1.0000
  O2          0.74688      0.23736      0.13296  1.0000
  O2          0.22513      0.31826      0.89680  1.0000
  O2          0.63743      0.88961      0.22734  1.0000
  O2          0.07430      0.74655      0.55514  1.0000
  O2          0.73215      0.64647      0.39023  1.0000
  O2          0.31858      0.07979      0.72457  1.0000
  O2          0.87834      0.21915      0.06186  1.0000
  O2          0.29946      0.20649      0.42466  1.0000
  O2          0.87158      0.65562      0.09903  1.0000
  O2          0.76873      0.08768      0.76532  1.0000
  O2          0.65312      0.76292      0.92937  1.0000
  O2          0.08034      0.30704      0.59192  1.0000
  O2          0.19343      0.88848      0.26434  1.0000
  O2          0.57372      0.55672      0.98280  1.0000
  O2          0.40168      0.00704      0.31987  1.0000
  O2          0.97136      0.40525      0.64693  1.0000
  O2          0.38846      0.40989      0.48074  1.0000
  O2          0.56598      0.97506      0.82355  1.0000
  O2          0.97600      0.55533      0.15578  1.0000
  O2          0.52388      0.55817      0.33509  1.0000
  O2          0.00361      0.42738      0.00865  1.0000
  O2          0.39796      0.95621      0.66719  1.0000
  O2          0.43077      0.40768      0.84146  1.0000
  O2          0.95038      0.53708      0.50208  1.0000
  O2          0.55046      0.01215      0.17250  1.0000
  O2          0.53684      0.14517      0.24672  1.0000
  O2          0.82661      0.40170      0.57637  1.0000
  O2          0.57613      0.41777      0.91292  1.0000
  O2          0.41349      0.80536      0.74995  1.0000
  O2          0.11883      0.55977      0.08527  1.0000
  O2          0.38467      0.54499      0.40936  1.0000
  F           0.40747      0.87659      0.24290  1.0000
  F           0.11325      0.53959      0.56673  1.0000
  F           0.42851      0.56578      0.90641  1.0000
  F           0.53052      0.04980      0.73885  1.0000
  F           0.84248      0.42801      0.07198  1.0000
  F           0.52658      0.40315      0.39992  1.0000
