data_cif

_audit_creation_method             'generated by GULP'

_symmetry_space_group_name_H-M     'P 1'
_symmetry_Int_Tables_number        1
_symmetry_cell_setting             triclinic

_cell_length_a                       11.9145
_cell_length_b                       11.9764
_cell_length_c                       29.3764
_cell_angle_alpha                   90.1201
_cell_angle_beta                    89.8878
_cell_angle_gamma                  119.2866

loop_
_atom_site_label
_atom_site_fract_x
_atom_site_fract_y
_atom_site_fract_z
_atom_site_occupancy
  Si          0.69960      0.37570      0.03389  1.0000
  Ge          0.60493      0.32230      0.36647  1.0000
  Si          0.68316      0.29266      0.70195  1.0000
  Si          0.27544      0.60389      0.53808  1.0000
  Si          0.38740      0.66149      0.86690  1.0000
  Si          0.31083      0.69945      0.19483  1.0000
  Si          0.36400      0.69665      0.29576  1.0000
  Si          0.31234      0.62607      0.96216  1.0000
  Si          0.31562      0.67591      0.63384  1.0000
  Si          0.62623      0.29276      0.80226  1.0000
  Ge          0.67752      0.36516      0.46774  1.0000
  Si          0.68073      0.31984      0.13044  1.0000
  Si          0.53409      0.42297      0.96958  1.0000
  Si          0.56707      0.11051      0.29791  1.0000
  Si          0.89790      0.46943      0.63940  1.0000
  Si          0.44423      0.57579      0.46763  1.0000
  Si          0.42666      0.87290      0.80358  1.0000
  Si          0.09733      0.52803      0.13005  1.0000
  Si          0.39419      0.52134      0.36272  1.0000
  Si          0.09430      0.57792      0.02643  1.0000
  Si          0.48363      0.88509      0.70016  1.0000
  Si          0.58721      0.47063      0.86530  1.0000
  Si          0.89369      0.41221      0.53626  1.0000
  Si          0.51415      0.10807      0.19527  1.0000
  Si          0.30304      0.39624      0.84805  1.0000
  Si          0.58536      0.89895      0.17954  1.0000
  Si          0.09605      0.69380      0.51776  1.0000
  Ge          0.68958      0.59994      0.34308  1.0000
  Si          0.40933      0.09255      0.68590  1.0000
  Si          0.88628      0.29573      0.01226  1.0000
  Si          0.38845      0.29207      0.47882  1.0000
  Si          0.88125      0.59985      0.14357  1.0000
  Si          0.70508      0.09212      0.81523  1.0000
  Si          0.59375      0.70636      0.97785  1.0000
  Si          0.11411      0.39832      0.65122  1.0000
  Si          0.28583      0.89956      0.30973  1.0000
  Si          0.25098      0.34479      0.95048  1.0000
  Si          0.64283      0.90609      0.28008  1.0000
  Si          0.09837      0.74622      0.62054  1.0000
  Ge          0.73841      0.66169      0.45169  1.0000
  Si          0.35014      0.07901      0.78691  1.0000
  Si          0.89528      0.24907      0.11472  1.0000
  Si          0.32036      0.23958      0.37647  1.0000
  Si          0.88500      0.65112      0.04090  1.0000
  Si          0.75989      0.08762      0.71453  1.0000
  Si          0.66265      0.75173      0.87592  1.0000
  Si          0.09717      0.33235      0.54942  1.0000
  Si          0.23737      0.90681      0.20857  1.0000
  Si          0.97361      0.12438      0.96483  1.0000
  Si          0.87012      0.85621      0.29415  1.0000
  Si          0.16216      0.02466      0.63429  1.0000
  Si          0.02479      0.87471      0.46632  1.0000
  Si          0.13148      0.14169      0.79986  1.0000
  Si          0.83538      0.97109      0.12936  1.0000
  Si          0.10375      0.96457      0.36334  1.0000
  Si          0.84086      0.88168      0.02830  1.0000
  Si          0.04024      0.14759      0.69936  1.0000
  Si          0.88752      0.02531      0.86440  1.0000
  Si          0.15086      0.11172      0.53328  1.0000
  Si          0.96088      0.85196      0.19371  1.0000
  O2          0.93099      0.00501      0.99828  1.0000
  O2          0.98069      0.92499      0.33166  1.0000
  O2          0.08054      0.07138      0.66403  1.0000
  O2          0.07595      0.99778      0.49816  1.0000
  O2          0.00861      0.06488      0.83179  1.0000
  O2          0.91782      0.93148      0.16159  1.0000
  O2          0.32155      0.57550      0.32985  1.0000
  O2          0.43550      0.76058      0.66711  1.0000
  O2          0.22185      0.65676      0.99568  1.0000
  O2          0.66288      0.41515      0.83503  1.0000
  O2          0.56274      0.23613      0.16447  1.0000
  O2          0.76517      0.33282      0.50716  1.0000
  O3          0.57177      0.34044      0.00103  1.0000
  O2          0.77208      0.41966      0.67109  1.0000
  O3          0.64273      0.22644      0.32980  1.0000
  O3          0.39530      0.64649      0.50014  1.0000
  O2          0.22261      0.57660      0.16200  1.0000
  O3          0.34717      0.75020      0.83330  1.0000
  O2          0.12607      0.22018      0.97136  1.0000
  O2          0.77349      0.91359      0.29997  1.0000
  O2          0.10039      0.87188      0.64176  1.0000
  O2          0.87200      0.79495      0.47323  1.0000
  O2          0.22205      0.07809      0.80684  1.0000
  O2          0.89598      0.12429      0.13519  1.0000
  O2          0.18490      0.11795      0.36028  1.0000
  O2          0.89519      0.78324      0.02213  1.0000
  O2          0.88711      0.08864      0.69401  1.0000
  O2          0.79691      0.87247      0.85883  1.0000
  O2          0.07955      0.19624      0.53232  1.0000
  O2          0.11290      0.90765      0.18650  1.0000
  O2          0.93360      0.87842      0.24470  1.0000
  O2          0.14838      0.05334      0.58222  1.0000
  O2          0.94274      0.06639      0.91471  1.0000
  O2          0.07987      0.12544      0.74876  1.0000
  O2          0.85246      0.93266      0.07907  1.0000
  O2          0.05846      0.91792      0.41444  1.0000
  O2          0.89643      0.20135      0.97475  1.0000
  O2          0.78767      0.70525      0.30210  1.0000
  O2          0.31267      0.09474      0.64713  1.0000
  O2          0.08743      0.78598      0.47930  1.0000
  O2          0.21043      0.29283      0.81060  1.0000
  O2          0.68390      0.90003      0.14081  1.0000
  O2          0.18708      0.89788      0.34819  1.0000
  O2          0.68985      0.80875      0.01514  1.0000
  O2          0.11201      0.30043      0.68966  1.0000
  O2          0.80534      0.09579      0.85339  1.0000
  O2          0.29830      0.20137      0.51943  1.0000
  O2          0.88586      0.69984      0.18204  1.0000
  O2          0.31064      0.63923      0.24476  1.0000
  O3          0.36873      0.67471      0.58323  1.0000
  O3          0.31068      0.67931      0.91215  1.0000
  O2          0.68144      0.35158      0.75182  1.0000
  O3          0.61690      0.31054      0.08074  1.0000
  O3          0.68292      0.30497      0.41509  1.0000
  O2          0.37646      0.34190      0.96859  1.0000
  O2          0.65063      0.03568      0.29800  1.0000
  O2          0.96907      0.62469      0.64005  1.0000
  O2          0.60012      0.66217      0.46756  1.0000
  O2          0.34223      0.94805      0.80394  1.0000
  O2          0.02674      0.37281      0.13155  1.0000
  O2          0.31193      0.36610      0.36073  1.0000
  O2          0.01884      0.65905      0.02379  1.0000
  O2          0.63976      0.95662      0.69527  1.0000
  O2          0.67099      0.62522      0.86045  1.0000
  O2          0.96569      0.32813      0.53264  1.0000
  O2          0.35840      0.03766      0.19015  1.0000
  O3          0.75073      0.29166      0.00380  1.0000
  O3          0.69298      0.46104      0.33370  1.0000
  O2          0.54257      0.22599      0.67737  1.0000
  O3          0.22741      0.69225      0.50875  1.0000
  O3          0.30136      0.52709      0.83743  1.0000
  O2          0.45194      0.76618      0.17046  1.0000
  O2          0.28737      0.76596      0.31659  1.0000
  O2          0.45742      0.70414      0.98370  1.0000
  O2          0.24709      0.53193      0.65592  1.0000
  O2          0.70423      0.22560      0.82345  1.0000
  O2          0.51892      0.28667      0.48612  1.0000
  O2          0.74906      0.46583      0.15077  1.0000
  O3          0.75874      0.53267      0.02058  1.0000
  O3          0.43417      0.22805      0.35430  1.0000
  O2          0.76383      0.21626      0.69537  1.0000
  O3          0.22272      0.44821      0.52691  1.0000
  O3          0.54328      0.75692      0.85321  1.0000
  O2          0.23223      0.77774      0.18941  1.0000
  O2          0.52021      0.77801      0.30007  1.0000
  O2          0.24879      0.47160      0.96766  1.0000
  O2          0.22439      0.74179      0.63727  1.0000
  O2          0.47136      0.20672      0.80712  1.0000
  O2          0.74099      0.52864      0.47141  1.0000
  O2          0.77227      0.25472      0.13449  1.0000
  O2          0.23556      0.32888      0.89590  1.0000
  O2          0.65970      0.89915      0.22558  1.0000
  O2          0.09215      0.75879      0.56605  1.0000
  O2          0.75798      0.67444      0.39375  1.0000
  O2          0.33418      0.08716      0.73238  1.0000
  O2          0.89217      0.23152      0.06024  1.0000
  O2          0.31630      0.22696      0.43182  1.0000
  O2          0.88280      0.66689      0.09595  1.0000
  O2          0.77756      0.08769      0.76895  1.0000
  O2          0.66748      0.76954      0.93081  1.0000
  O2          0.10557      0.32447      0.60433  1.0000
  O2          0.21650      0.90522      0.26296  1.0000
  O2          0.57637      0.56679      0.98741  1.0000
  O2          0.42381      0.02064      0.31902  1.0000
  O2          0.99349      0.42177      0.65921  1.0000
  O2          0.41080      0.43420      0.48486  1.0000
  O2          0.56852      0.96809      0.82462  1.0000
  O2          0.00339      0.57799      0.15005  1.0000
  O2          0.53371      0.57320      0.34045  1.0000
  O2          0.01000      0.43638      0.00469  1.0000
  O2          0.42260      0.96652      0.67686  1.0000
  O2          0.44606      0.41367      0.84256  1.0000
  O2          0.97213      0.55161      0.51212  1.0000
  O2          0.57454      0.02667      0.17120  1.0000
  O2          0.56230      0.15822      0.24613  1.0000
  O2          0.85209      0.41947      0.58814  1.0000
  O2          0.58500      0.42891      0.91758  1.0000
  O2          0.43503      0.83205      0.75084  1.0000
  O2          0.14048      0.57536      0.07821  1.0000
  O2          0.39679      0.56821      0.41469  1.0000
  F           0.43399      0.89273      0.24200  1.0000
  F           0.13090      0.55041      0.57636  1.0000
  F           0.44217      0.57257      0.90564  1.0000
  F           0.56364      0.09953      0.74824  1.0000
  F           0.85323      0.43604      0.07074  1.0000
  F           0.55621      0.42151      0.40524  1.0000
