data_cif

_audit_creation_method             'generated by GULP'

_symmetry_space_group_name_H-M     'P 1'
_symmetry_Int_Tables_number        1
_symmetry_cell_setting             triclinic

_cell_length_a                       11.8919
_cell_length_b                       12.0155
_cell_length_c                       29.3909
_cell_angle_alpha                   89.9497
_cell_angle_beta                    89.9829
_cell_angle_gamma                  119.3905

loop_
_atom_site_label
_atom_site_fract_x
_atom_site_fract_y
_atom_site_fract_z
_atom_site_occupancy
  Si          0.69960      0.37570      0.03389  1.0000
  Ge          0.59991      0.31138      0.36529  1.0000
  Si          0.67321      0.28279      0.70123  1.0000
  Si          0.26770      0.59436      0.53836  1.0000
  Si          0.37999      0.65390      0.86699  1.0000
  Si          0.30015      0.69161      0.19611  1.0000
  Si          0.35487      0.69204      0.29679  1.0000
  Si          0.30822      0.61733      0.96266  1.0000
  Si          0.30509      0.66536      0.63455  1.0000
  Si          0.61886      0.28611      0.80152  1.0000
  Ge          0.66763      0.36062      0.46719  1.0000
  Si          0.67219      0.31203      0.13005  1.0000
  Si          0.53090      0.41657      0.96870  1.0000
  Si          0.55981      0.10315      0.29704  1.0000
  Si          0.88787      0.45874      0.63853  1.0000
  Si          0.44192      0.56722      0.47013  1.0000
  Si          0.41744      0.86615      0.80401  1.0000
  Si          0.08900      0.51895      0.13105  1.0000
  Si          0.38629      0.52070      0.36510  1.0000
  Si          0.09185      0.57223      0.02752  1.0000
  Si          0.47273      0.87577      0.70051  1.0000
  Si          0.58202      0.46464      0.86439  1.0000
  Si          0.88475      0.40380      0.53554  1.0000
  Si          0.50374      0.09940      0.19460  1.0000
  Si          0.29710      0.39030      0.84785  1.0000
  Si          0.57490      0.89073      0.17928  1.0000
  Si          0.08797      0.68452      0.51808  1.0000
  Ge          0.67931      0.59080      0.34754  1.0000
  Si          0.39847      0.08266      0.68544  1.0000
  Si          0.88296      0.29122      0.01253  1.0000
  Si          0.37863      0.28185      0.48235  1.0000
  Si          0.87312      0.59104      0.14378  1.0000
  Si          0.69688      0.08548      0.81514  1.0000
  Si          0.59077      0.69854      0.97760  1.0000
  Si          0.10396      0.38735      0.65039  1.0000
  Si          0.27713      0.89397      0.31036  1.0000
  Si          0.24663      0.33765      0.95008  1.0000
  Si          0.63404      0.89848      0.27964  1.0000
  Si          0.08843      0.73584      0.62074  1.0000
  Si          0.72949      0.64933      0.45290  1.0000
  Si          0.34191      0.07230      0.78660  1.0000
  Si          0.88714      0.24080      0.11499  1.0000
  Ge          0.30969      0.23302      0.37755  1.0000
  Si          0.88503      0.64897      0.04143  1.0000
  Si          0.74983      0.07869      0.71451  1.0000
  Si          0.65684      0.74446      0.87555  1.0000
  Si          0.08719      0.32296      0.54859  1.0000
  Si          0.22668      0.89851      0.20926  1.0000
  Si          0.96830      0.11874      0.96504  1.0000
  Si          0.85645      0.84244      0.29478  1.0000
  Si          0.14925      0.01270      0.63447  1.0000
  Si          0.00818      0.85922      0.46722  1.0000
  Si          0.12425      0.13667      0.80006  1.0000
  Si          0.82558      0.96261      0.12964  1.0000
  Si          0.08871      0.94945      0.36433  1.0000
  Si          0.83751      0.87643      0.02875  1.0000
  Si          0.03025      0.13780      0.69949  1.0000
  Si          0.87984      0.01962      0.86469  1.0000
  Si          0.13597      0.09862      0.53350  1.0000
  Si          0.94850      0.84053      0.19413  1.0000
  O2          0.92651      0.00081      0.99911  1.0000
  O2          0.96771      0.90977      0.33188  1.0000
  O2          0.06939      0.05849      0.66546  1.0000
  O2          0.05840      0.98401      0.49844  1.0000
  O2          0.00257      0.06091      0.83275  1.0000
  O2          0.90551      0.92137      0.16263  1.0000
  O2          0.31376      0.57563      0.33273  1.0000
  O2          0.42476      0.75072      0.66796  1.0000
  O2          0.22016      0.64937      0.99686  1.0000
  O2          0.65697      0.40927      0.83381  1.0000
  O2          0.55228      0.22671      0.16337  1.0000
  O2          0.75684      0.32824      0.50589  1.0000
  O3          0.57135      0.33724      0.00041  1.0000
  O2          0.76174      0.40909      0.67012  1.0000
  O3          0.64134      0.21966      0.32809  1.0000
  O3          0.39519      0.63876      0.50283  1.0000
  O2          0.21296      0.56777      0.16382  1.0000
  O3          0.33929      0.74410      0.83413  1.0000
  O2          0.12163      0.21277      0.97094  1.0000
  O2          0.76414      0.90471      0.29955  1.0000
  O2          0.08937      0.86044      0.64193  1.0000
  O2          0.85406      0.77456      0.47451  1.0000
  O2          0.21464      0.07288      0.80672  1.0000
  O2          0.88649      0.11554      0.13549  1.0000
  O2          0.16741      0.10156      0.36135  1.0000
  O2          0.89630      0.78164      0.02315  1.0000
  O2          0.87682      0.07904      0.69401  1.0000
  O2          0.78977      0.86707      0.85842  1.0000
  O2          0.06985      0.18776      0.53097  1.0000
  O2          0.10137      0.89843      0.18730  1.0000
  O2          0.91833      0.86103      0.24527  1.0000
  O2          0.12865      0.03978      0.58281  1.0000
  O2          0.93303      0.05893      0.91534  1.0000
  O2          0.07018      0.11942      0.74934  1.0000
  O2          0.84512      0.92539      0.07956  1.0000
  O2          0.04136      0.90159      0.41524  1.0000
  O2          0.89309      0.19729      0.97514  1.0000
  O2          0.77384      0.69371      0.30542  1.0000
  O2          0.30100      0.08345      0.64646  1.0000
  O2          0.07830      0.77767      0.48028  1.0000
  O2          0.20399      0.28772      0.81033  1.0000
  O2          0.67309      0.89206      0.14030  1.0000
  O2          0.17898      0.89008      0.34947  1.0000
  O2          0.68689      0.80065      0.01484  1.0000
  O2          0.10277      0.28957      0.68859  1.0000
  O2          0.79752      0.08971      0.85344  1.0000
  O2          0.28651      0.18759      0.52219  1.0000
  O2          0.87492      0.68932      0.18206  1.0000
  O2          0.30088      0.63217      0.24615  1.0000
  O3          0.35763      0.66408      0.58396  1.0000
  O3          0.30521      0.67075      0.91273  1.0000
  O2          0.67286      0.34310      0.75084  1.0000
  O3          0.61338      0.30819      0.08001  1.0000
  O3          0.67443      0.29807      0.41530  1.0000
  O2          0.37277      0.33471      0.96782  1.0000
  O2          0.64328      0.02861      0.29680  1.0000
  O2          0.95850      0.61358      0.63952  1.0000
  O2          0.60027      0.65018      0.46907  1.0000
  O2          0.33344      0.94168      0.80415  1.0000
  O2          0.01840      0.36405      0.13248  1.0000
  O2          0.30123      0.36718      0.36155  1.0000
  O2          0.01902      0.65599      0.02477  1.0000
  O2          0.62927      0.94755      0.69562  1.0000
  O2          0.66586      0.61921      0.85958  1.0000
  O2          0.95516      0.31827      0.53173  1.0000
  O2          0.34742      0.02828      0.18974  1.0000
  O3          0.74905      0.29010      0.00397  1.0000
  O3          0.68819      0.45616      0.33632  1.0000
  O2          0.53210      0.21570      0.67669  1.0000
  O3          0.22006      0.68253      0.50909  1.0000
  O3          0.29469      0.52078      0.83728  1.0000
  O2          0.44059      0.75842      0.17096  1.0000
  O2          0.27749      0.76053      0.31698  1.0000
  O2          0.45406      0.69556      0.98369  1.0000
  O2          0.23690      0.52095      0.65595  1.0000
  O2          0.69676      0.21903      0.82291  1.0000
  O2          0.51175      0.28000      0.48844  1.0000
  O2          0.74038      0.45719      0.15065  1.0000
  O3          0.75865      0.53129      0.02040  1.0000
  O3          0.43369      0.22192      0.35296  1.0000
  O2          0.75406      0.20672      0.69489  1.0000
  O3          0.21357      0.44003      0.52635  1.0000
  O3          0.53563      0.74824      0.85347  1.0000
  O2          0.22016      0.76856      0.19091  1.0000
  O2          0.51129      0.77228      0.30044  1.0000
  O2          0.24397      0.46316      0.96804  1.0000
  O2          0.21388      0.73084      0.63808  1.0000
  O2          0.46366      0.20014      0.80652  1.0000
  O2          0.73326      0.52496      0.47066  1.0000
  O2          0.76324      0.24641      0.13400  1.0000
  O2          0.22906      0.32160      0.89557  1.0000
  O2          0.64985      0.89067      0.22516  1.0000
  O2          0.08550      0.74988      0.56624  1.0000
  O2          0.74841      0.66449      0.39859  1.0000
  O2          0.32447      0.07878      0.73205  1.0000
  O2          0.88662      0.22565      0.06055  1.0000
  O2          0.30492      0.21629      0.43601  1.0000
  O2          0.87846      0.66109      0.09641  1.0000
  O2          0.76883      0.08021      0.76892  1.0000
  O2          0.66328      0.76138      0.93038  1.0000
  O2          0.09626      0.31430      0.60346  1.0000
  O2          0.20779      0.90082      0.26366  1.0000
  O2          0.57395      0.55972      0.98692  1.0000
  O2          0.41672      0.01440      0.31913  1.0000
  O2          0.98288      0.41019      0.65841  1.0000
  O2          0.40182      0.42444      0.48767  1.0000
  O2          0.56001      0.96165      0.82483  1.0000
  O2          0.99474      0.56855      0.15082  1.0000
  O2          0.52601      0.56975      0.34298  1.0000
  O2          0.00762      0.43169      0.00545  1.0000
  O2          0.41151      0.95669      0.67697  1.0000
  O2          0.44009      0.40720      0.84191  1.0000
  O2          0.96403      0.54341      0.51174  1.0000
  O2          0.56423      0.01818      0.17091  1.0000
  O2          0.55211      0.15013      0.24538  1.0000
  O2          0.84174      0.40919      0.58733  1.0000
  O2          0.58121      0.42294      0.91660  1.0000
  O2          0.42465      0.82434      0.75138  1.0000
  O2          0.13559      0.56788      0.07954  1.0000
  O2          0.39203      0.56342      0.41775  1.0000
  F           0.42374      0.88520      0.24220  1.0000
  F           0.11780      0.53729      0.57613  1.0000
  F           0.43404      0.56115      0.90548  1.0000
  F           0.55427      0.09132      0.74805  1.0000
  F           0.85199      0.43399      0.07102  1.0000
  F           0.54272      0.41035      0.40631  1.0000
