data_cif

_audit_creation_method             'generated by GULP'

_symmetry_space_group_name_H-M     'P 1'
_symmetry_Int_Tables_number        1
_symmetry_cell_setting             triclinic

_cell_length_a                       11.9418
_cell_length_b                       12.0121
_cell_length_c                       29.4591
_cell_angle_alpha                   90.0895
_cell_angle_beta                    89.6430
_cell_angle_gamma                  120.2462

loop_
_atom_site_label
_atom_site_fract_x
_atom_site_fract_y
_atom_site_fract_z
_atom_site_occupancy
  Ge          0.69960      0.37570      0.03389  1.0000
  Si          0.63198      0.32837      0.36765  1.0000
  Si          0.67954      0.29566      0.69899  1.0000
  Si          0.30568      0.62387      0.53498  1.0000
  Si          0.38142      0.68031      0.86778  1.0000
  Si          0.33469      0.70690      0.20330  1.0000
  Si          0.38806      0.70565      0.30347  1.0000
  Si          0.33018      0.61841      0.96818  1.0000
  Si          0.30039      0.67614      0.63559  1.0000
  Si          0.62591      0.30048      0.79944  1.0000
  Si          0.68518      0.38237      0.46819  1.0000
  Ge          0.72280      0.33120      0.13278  1.0000
  Si          0.53534      0.41630      0.96333  1.0000
  Si          0.59524      0.11682      0.30378  1.0000
  Si          0.89117      0.46934      0.63422  1.0000
  Si          0.47790      0.58503      0.46972  1.0000
  Si          0.41884      0.89068      0.80326  1.0000
  Si          0.12332      0.53050      0.13852  1.0000
  Si          0.42619      0.53366      0.36797  1.0000
  Si          0.12170      0.58238      0.03556  1.0000
  Si          0.46981      0.88503      0.70150  1.0000
  Si          0.58791      0.47608      0.86200  1.0000
  Si          0.89500      0.41916      0.53266  1.0000
  Si          0.54672      0.12048      0.20133  1.0000
  Si          0.30516      0.40404      0.84998  1.0000
  Si          0.61427      0.90760      0.18835  1.0000
  Si          0.10490      0.70084      0.51929  1.0000
  Si          0.70862      0.60602      0.35310  1.0000
  Si          0.39948      0.09394      0.68618  1.0000
  Si          0.90566      0.29482      0.02165  1.0000
  Si          0.40629      0.30503      0.48354  1.0000
  Si          0.90987      0.60552      0.15404  1.0000
  Si          0.70123      0.10029      0.81624  1.0000
  Si          0.61038      0.69551      0.98154  1.0000
  Si          0.09900      0.39724      0.64943  1.0000
  Si          0.31288      0.90665      0.31844  1.0000
  Si          0.25554      0.33969      0.95036  1.0000
  Si          0.67045      0.91455      0.28910  1.0000
  Si          0.09222      0.74862      0.62004  1.0000
  Si          0.75758      0.66242      0.45387  1.0000
  Si          0.34293      0.09170      0.78694  1.0000
  Si          0.92136      0.24559      0.12402  1.0000
  Si          0.34964      0.25566      0.38288  1.0000
  Si          0.91922      0.66325      0.05104  1.0000
  Si          0.75024      0.08747      0.71557  1.0000
  Si          0.66429      0.75234      0.88058  1.0000
  Si          0.09569      0.34161      0.54867  1.0000
  Si          0.26578      0.91642      0.21797  1.0000
  Si          0.97728      0.11969      0.96807  1.0000
  Si          0.88953      0.85523      0.30309  1.0000
  Si          0.15241      0.02731      0.63508  1.0000
  Si          0.03773      0.88118      0.46928  1.0000
  Si          0.12535      0.15515      0.80101  1.0000
  Si          0.86183      0.96990      0.13588  1.0000
  Si          0.13240      0.97553      0.36845  1.0000
  Si          0.85808      0.87824      0.03401  1.0000
  Si          0.03058      0.14919      0.70015  1.0000
  Si          0.88097      0.03324      0.86683  1.0000
  Si          0.15718      0.12382      0.53431  1.0000
  Si          0.98773      0.85787      0.20268  1.0000
  O2          0.93759      0.99873      0.00072  1.0000
  O2          0.01108      0.93297      0.33575  1.0000
  O2          0.07203      0.06850      0.66790  1.0000
  O2          0.07761      0.00150      0.50219  1.0000
  O2          0.00496      0.07803      0.83480  1.0000
  O2          0.94304      0.92636      0.16639  1.0000
  O2          0.34906      0.58201      0.33595  1.0000
  O2          0.42134      0.75947      0.66942  1.0000
  O2          0.24642      0.65540      0.00252  1.0000
  O2          0.66537      0.42830      0.82953  1.0000
  O3          0.59148      0.24117      0.17033  1.0000
  O2          0.76985      0.34294      0.50023  1.0000
  O3          0.58226      0.33746      0.99285  1.0000
  O2          0.76303      0.41797      0.66593  1.0000
  O2          0.67148      0.24353      0.33565  1.0000
  O2          0.43009      0.66209      0.50249  1.0000
  O2          0.24951      0.58356      0.17028  1.0000
  O2          0.34238      0.76660      0.83660  1.0000
  O2          0.13241      0.21010      0.97059  1.0000
  O2          0.79725      0.91631      0.30954  1.0000
  O2          0.08887      0.87315      0.63992  1.0000
  O2          0.88306      0.78863      0.47448  1.0000
  O2          0.21721      0.09349      0.80727  1.0000
  O2          0.93528      0.12449      0.14081  1.0000
  O2          0.22320      0.12955      0.36271  1.0000
  O2          0.92834      0.79370      0.03119  1.0000
  O2          0.87566      0.08516      0.69530  1.0000
  O2          0.78987      0.87962      0.86028  1.0000
  O2          0.09508      0.21538      0.52863  1.0000
  O2          0.14237      0.92251      0.19791  1.0000
  O2          0.94334      0.87492      0.25216  1.0000
  O2          0.14185      0.07056      0.58493  1.0000
  O2          0.92948      0.06729      0.91799  1.0000
  O2          0.07058      0.13679      0.75070  1.0000
  O2          0.86404      0.92949      0.08430  1.0000
  O2          0.07828      0.93638      0.41903  1.0000
  O2          0.91238      0.20316      0.98269  1.0000
  O2          0.80733      0.70295      0.31441  1.0000
  O2          0.30396      0.09545      0.64761  1.0000
  O2          0.10824      0.80010      0.48117  1.0000
  O2          0.20720      0.30797      0.81143  1.0000
  O2          0.71133      0.90467      0.14998  1.0000
  O2          0.21475      0.90613      0.35703  1.0000
  O2          0.70732      0.79112      0.02032  1.0000
  O2          0.09987      0.30034      0.68772  1.0000
  O2          0.79949      0.10323      0.85489  1.0000
  O2          0.30960      0.20617      0.52219  1.0000
  O2          0.92218      0.70648      0.19259  1.0000
  O2          0.33023      0.64651      0.25334  1.0000
  O2          0.36143      0.67938      0.58555  1.0000
  O2          0.32698      0.67870      0.91894  1.0000
  O2          0.68251      0.35506      0.74897  1.0000
  O1          0.62627      0.31312      0.08448  1.0000
  O2          0.68746      0.32711      0.41792  1.0000
  O2          0.37837      0.33025      0.96748  1.0000
  O2          0.68079      0.04639      0.30766  1.0000
  O2          0.95894      0.62511      0.63804  1.0000
  O2          0.63486      0.67225      0.47247  1.0000
  O2          0.33175      0.95983      0.80618  1.0000
  O2          0.05366      0.37494      0.13983  1.0000
  O2          0.33898      0.37744      0.36492  1.0000
  O2          0.05159      0.66760      0.03478  1.0000
  O2          0.62677      0.95394      0.69853  1.0000
  O2          0.67487      0.63244      0.86030  1.0000
  O2          0.96384      0.33203      0.52991  1.0000
  O2          0.38855      0.04728      0.19999  1.0000
  O3          0.77342      0.29106      0.01274  1.0000
  O2          0.70767      0.47196      0.34540  1.0000
  O2          0.53488      0.22648      0.67765  1.0000
  O2          0.23929      0.70020      0.51259  1.0000
  O2          0.30507      0.53820      0.84459  1.0000
  O2          0.47878      0.77336      0.18075  1.0000
  O2          0.31283      0.77311      0.32654  1.0000
  O2          0.47392      0.69137      0.99054  1.0000
  O2          0.23214      0.53237      0.65757  1.0000
  O2          0.70099      0.23422      0.82309  1.0000
  O2          0.54128      0.30655      0.49098  1.0000
  O3          0.77724      0.47820      0.16320  1.0000
  O3          0.79585      0.54371      0.02967  1.0000
  O2          0.47534      0.25497      0.36292  1.0000
  O2          0.75200      0.21234      0.69468  1.0000
  O2          0.22337      0.46800      0.52983  1.0000
  O2          0.53796      0.75398      0.86255  1.0000
  O2          0.25954      0.78756      0.19793  1.0000
  O2          0.54494      0.78681      0.30851  1.0000
  O2          0.25127      0.46194      0.97167  1.0000
  O2          0.21849      0.75035      0.64016  1.0000
  O2          0.46919      0.21920      0.80566  1.0000
  O2          0.75978      0.53815      0.47344  1.0000
  O3          0.79619      0.23610      0.14575  1.0000
  O2          0.23482      0.32595      0.89606  1.0000
  O2          0.68886      0.91279      0.23474  1.0000
  O2          0.09719      0.76897      0.56575  1.0000
  O2          0.77862      0.68037      0.39953  1.0000
  O2          0.32486      0.09124      0.73263  1.0000
  O2          0.91337      0.23166      0.06894  1.0000
  O2          0.33145      0.23505      0.43724  1.0000
  O2          0.91388      0.67305      0.10559  1.0000
  O2          0.77144      0.09399      0.76990  1.0000
  O2          0.68309      0.76804      0.93499  1.0000
  O2          0.09580      0.32352      0.60302  1.0000
  O2          0.24204      0.91018      0.27225  1.0000
  O2          0.59718      0.55613      0.98859  1.0000
  O2          0.45278      0.03249      0.32684  1.0000
  O2          0.97285      0.41075      0.65798  1.0000
  O2          0.41955      0.44361      0.49272  1.0000
  O2          0.56107      0.97512      0.82588  1.0000
  O2          0.03050      0.57985      0.15865  1.0000
  O2          0.56846      0.59122      0.34481  1.0000
  O2          0.02558      0.44067      0.01593  1.0000
  O2          0.41260      0.96820      0.67827  1.0000
  O2          0.44589      0.42153      0.83973  1.0000
  O2          0.98046      0.56086      0.50992  1.0000
  O2          0.59974      0.03108      0.17892  1.0000
  O2          0.59799      0.16774      0.25294  1.0000
  O2          0.83962      0.41771      0.58333  1.0000
  O2          0.58784      0.42070      0.91206  1.0000
  O2          0.41688      0.83460      0.75276  1.0000
  O2          0.16893      0.57902      0.08665  1.0000
  O2          0.42522      0.58542      0.41899  1.0000
  F           0.45981      0.90076      0.25367  1.0000
  F           0.10154      0.54912      0.58496  1.0000
  F           0.45509      0.54907      0.91674  1.0000
  F           0.55018      0.09675      0.75178  1.0000
  F           0.86654      0.42456      0.09174  1.0000
  F           0.55728      0.45546      0.41885  1.0000
