data_cif

_audit_creation_method             'generated by GULP'

_symmetry_space_group_name_H-M     'P 1'
_symmetry_Int_Tables_number        1
_symmetry_cell_setting             triclinic

_cell_length_a                       11.9156
_cell_length_b                       12.0590
_cell_length_c                       29.4366
_cell_angle_alpha                   90.0008
_cell_angle_beta                    89.9998
_cell_angle_gamma                  120.3253

loop_
_atom_site_label
_atom_site_fract_x
_atom_site_fract_y
_atom_site_fract_z
_atom_site_occupancy
  Ge          0.69960      0.37570      0.03389  1.0000
  Si          0.59195      0.30463      0.36421  1.0000
  Si          0.66100      0.28328      0.69809  1.0000
  Ge          0.25512      0.59493      0.53389  1.0000
  Si          0.36289      0.66608      0.86420  1.0000
  Si          0.29384      0.68744      0.19808  1.0000
  Si          0.34513      0.67986      0.29862  1.0000
  Si          0.30816      0.60960      0.96436  1.0000
  Si          0.29224      0.66799      0.63193  1.0000
  Si          0.60971      0.29085      0.79863  1.0000
  Si          0.64665      0.36113      0.46437  1.0000
  Si          0.66259      0.30271      0.13194  1.0000
  Si          0.52371      0.41033      0.96541  1.0000
  Si          0.55368      0.09173      0.30147  1.0000
  Si          0.86930      0.45446      0.63126  1.0000
  Si          0.43108      0.56039      0.46541  1.0000
  Si          0.40117      0.87898      0.80146  1.0000
  Si          0.08554      0.51627      0.13124  1.0000
  Si          0.38265      0.50592      0.36266  1.0000
  Si          0.09256      0.57186      0.02802  1.0000
  Si          0.45336      0.87666      0.69983  1.0000
  Si          0.57218      0.46479      0.86266  1.0000
  Si          0.86223      0.39884      0.52803  1.0000
  Si          0.50150      0.09406      0.19984  1.0000
  Si          0.28918      0.39213      0.84818  1.0000
  Si          0.57395      0.88854      0.18350  1.0000
  Si          0.07378      0.68593      0.51147  1.0000
  Si          0.66565      0.57858      0.34819  1.0000
  Si          0.38090      0.08218      0.68350  1.0000
  Si          0.88100      0.28477      0.01147  1.0000
  Si          0.36600      0.28126      0.47815  1.0000
  Si          0.86982      0.58686      0.14366  1.0000
  Si          0.68501      0.08987      0.81452  1.0000
  Si          0.58881      0.68946      0.97815  1.0000
  Si          0.08501      0.38386      0.64367  1.0000
  Si          0.26984      0.88084      0.31452  1.0000
  Si          0.24200      0.33317      0.94871  1.0000
  Si          0.62874      0.89072      0.28443  1.0000
  Si          0.07355      0.73506      0.61482  1.0000
  Si          0.71280      0.63754      0.44871  1.0000
  Si          0.32611      0.08000      0.78443  1.0000
  Si          0.88129      0.23566      0.11482  1.0000
  Si          0.30878      0.22971      0.37733  1.0000
  Si          0.89198      0.65719      0.04135  1.0000
  Si          0.73447      0.07847      0.71379  1.0000
  Si          0.64606      0.74100      0.87733  1.0000
  Si          0.06278      0.31346      0.54137  1.0000
  Si          0.22037      0.89225      0.21379  1.0000
  Si          0.96331      0.11308      0.96330  1.0000
  Si          0.84506      0.82640      0.29757  1.0000
  Si          0.13167      0.01127      0.63162  1.0000
  Si          0.99149      0.85762      0.46330  1.0000
  Si          0.10978      0.14431      0.79757  1.0000
  Si          0.82318      0.95946      0.13162  1.0000
  Si          0.08952      0.95066      0.36305  1.0000
  Si          0.83625      0.87537      0.03017  1.0000
  Si          0.01450      0.13736      0.69620  1.0000
  Si          0.86531      0.02004      0.86305  1.0000
  Si          0.11856      0.09533      0.53018  1.0000
  Si          0.94034      0.83336      0.19620  1.0000
  O2          0.91788      0.99783      0.99862  1.0000
  O2          0.97010      0.90653      0.32889  1.0000
  O2          0.05019      0.05221      0.66393  1.0000
  O2          0.03695      0.97288      0.49862  1.0000
  O2          0.98474      0.06418      0.82890  1.0000
  O2          0.90467      0.91853      0.16393  1.0000
  O2          0.30618      0.55547      0.33013  1.0000
  O2          0.40345      0.74860      0.66937  1.0000
  O2          0.22235      0.64648      0.99744  1.0000
  O2          0.64866      0.41523      0.83014  1.0000
  O2          0.55141      0.22213      0.16939  1.0000
  O2          0.73244      0.32423      0.49746  1.0000
  O3          0.56669      0.33424      0.99702  1.0000
  O2          0.74580      0.40520      0.66455  1.0000
  O2          0.63130      0.21740      0.33331  1.0000
  O3          0.38804      0.63643      0.49701  1.0000
  O2          0.20905      0.56554      0.16454  1.0000
  O2          0.32355      0.75331      0.83330  1.0000
  O2          0.11797      0.20358      0.96877  1.0000
  O2          0.75464      0.88938      0.30451  1.0000
  O2          0.07178      0.85781      0.63647  1.0000
  O2          0.83683      0.76714      0.46877  1.0000
  O2          0.20020      0.08133      0.80451  1.0000
  O2          0.88308      0.11291      0.13647  1.0000
  O2          0.18223      0.10364      0.35671  1.0000
  O2          0.91048      0.79506      0.02634  1.0000
  O2          0.85926      0.07575      0.69314  1.0000
  O2          0.77260      0.86707      0.85671  1.0000
  O2          0.04428      0.17560      0.52636  1.0000
  O2          0.09559      0.89498      0.19314  1.0000
  O2          0.89354      0.83997      0.24624  1.0000
  O2          0.11675      0.04722      0.58088  1.0000
  O2          0.92254      0.05418      0.91340  1.0000
  O2          0.06129      0.13072      0.74624  1.0000
  O2          0.83810      0.92347      0.08088  1.0000
  O2          0.03228      0.91651      0.41340  1.0000
  O2          0.89519      0.19614      0.97353  1.0000
  O2          0.76361      0.67538      0.30943  1.0000
  O2          0.28393      0.08262      0.64469  1.0000
  O2          0.05958      0.77454      0.47353  1.0000
  O2          0.19123      0.29533      0.80943  1.0000
  O2          0.67092      0.88811      0.14469  1.0000
  O2          0.17170      0.87989      0.35310  1.0000
  O2          0.68553      0.78854      0.01650  1.0000
  O2          0.08443      0.28696      0.68194  1.0000
  O2          0.78314      0.09082      0.85310  1.0000
  O2          0.26927      0.18220      0.51650  1.0000
  O2          0.87041      0.68377      0.18193  1.0000
  O2          0.29066      0.62587      0.24764  1.0000
  O3          0.35363      0.67337      0.58373  1.0000
  O2          0.30336      0.66484      0.91426  1.0000
  O2          0.66418      0.34485      0.74765  1.0000
  O3          0.60115      0.29728      0.08374  1.0000
  O2          0.65147      0.30588      0.41427  1.0000
  O2          0.36499      0.32449      0.96583  1.0000
  O2          0.64048      0.02236      0.30339  1.0000
  O2          0.94223      0.60966      0.63274  1.0000
  O2          0.58981      0.64623      0.46583  1.0000
  O2          0.31437      0.94835      0.80338  1.0000
  O2          0.01262      0.36107      0.13273  1.0000
  O2          0.29759      0.35012      0.35841  1.0000
  O2          0.02548      0.65985      0.02632  1.0000
  O2          0.61063      0.94665      0.69562  1.0000
  O2          0.65725      0.62058      0.85841  1.0000
  O2          0.92928      0.31081      0.52634  1.0000
  O2          0.34423      0.02408      0.19563  1.0000
  O3          0.74820      0.27902      0.00232  1.0000
  O2          0.66600      0.44550      0.34004  1.0000
  O2          0.51740      0.21440      0.67499  1.0000
  O3          0.20657      0.69165      0.50233  1.0000
  O2          0.28884      0.52522      0.84003  1.0000
  O2          0.43745      0.75633      0.17499  1.0000
  O2          0.26870      0.74676      0.32083  1.0000
  O2          0.45319      0.68807      0.98605  1.0000
  O2          0.21766      0.51921      0.65078  1.0000
  O2          0.68614      0.22394      0.82083  1.0000
  O2          0.50162      0.28265      0.48605  1.0000
  O2          0.73717      0.45151      0.15077  1.0000
  O3          0.76791      0.54389      0.01859  1.0000
  O2          0.43455      0.22714      0.35826  1.0000
  O2          0.73918      0.20556      0.69360  1.0000
  O3          0.18683      0.42676      0.51859  1.0000
  O2          0.52029      0.74357      0.85825  1.0000
  O2          0.21567      0.76517      0.19360  1.0000
  O2          0.50202      0.76423      0.30352  1.0000
  O2          0.23575      0.45436      0.96949  1.0000
  O2          0.19870      0.73133      0.63285  1.0000
  O2          0.45282      0.20648      0.80353  1.0000
  O2          0.71906      0.51637      0.46950  1.0000
  O2          0.75615      0.23939      0.13285  1.0000
  O2          0.21740      0.31723      0.89438  1.0000
  O2          0.64728      0.89051      0.22998  1.0000
  O2          0.07062      0.74852      0.56047  1.0000
  O2          0.73741      0.65349      0.39439  1.0000
  O2          0.30757      0.08021      0.72998  1.0000
  O2          0.88418      0.22218      0.06046  1.0000
  O2          0.29053      0.21084      0.43170  1.0000
  O2          0.87695      0.65739      0.09654  1.0000
  O2          0.75453      0.08247      0.76816  1.0000
  O2          0.66429      0.75987      0.93170  1.0000
  O2          0.07786      0.31332      0.59655  1.0000
  O2          0.20032      0.88825      0.26816  1.0000
  O2          0.57366      0.55179      0.98737  1.0000
  O2          0.41121      0.00401      0.32400  1.0000
  O2          0.96227      0.40396      0.65040  1.0000
  O2          0.38114      0.41893      0.48736  1.0000
  O2          0.54363      0.96670      0.82399  1.0000
  O2          0.99256      0.56676      0.15039  1.0000
  O2          0.52549      0.56498      0.33967  1.0000
  O2          0.00273      0.43120      0.00630  1.0000
  O2          0.39256      0.95583      0.67558  1.0000
  O2          0.42935      0.40572      0.83967  1.0000
  O2          0.95206      0.53948      0.50631  1.0000
  O2          0.56229      0.01489      0.17558  1.0000
  O2          0.55306      0.14458      0.25080  1.0000
  O2          0.82034      0.40528      0.58008  1.0000
  O2          0.57614      0.41664      0.91350  1.0000
  O2          0.40179      0.82614      0.75079  1.0000
  O2          0.13447      0.56544      0.08006  1.0000
  O2          0.37868      0.55407      0.41349  1.0000
  F           0.41978      0.88315      0.24755  1.0000
  F           0.11117      0.54160      0.57075  1.0000
  F           0.43573      0.54379      0.91201  1.0000
  F           0.53507      0.08757      0.74755  1.0000
  F           0.84359      0.42907      0.07073  1.0000
  F           0.51910      0.42692      0.41201  1.0000
