data_cif

_audit_creation_method             'generated by GULP'

_symmetry_space_group_name_H-M     'P 1'
_symmetry_Int_Tables_number        1
_symmetry_cell_setting             triclinic

_cell_length_a                       11.9883
_cell_length_b                       11.9883
_cell_length_c                       29.4209
_cell_angle_alpha                   89.7303
_cell_angle_beta                    90.2700
_cell_angle_gamma                  120.3395

loop_
_atom_site_label
_atom_site_fract_x
_atom_site_fract_y
_atom_site_fract_z
_atom_site_occupancy
  Ge          0.69960      0.37570      0.03389  1.0000
  Si          0.60687      0.31557      0.36693  1.0000
  Si          0.66732      0.29391      0.69859  1.0000
  Si          0.28153      0.61659      0.52859  1.0000
  Si          0.36792      0.66583      0.86075  1.0000
  Si          0.30138      0.68127      0.19554  1.0000
  Ge          0.36968      0.70569      0.29401  1.0000
  Si          0.30950      0.61291      0.96097  1.0000
  Si          0.28786      0.67337      0.62932  1.0000
  Si          0.61054      0.28758      0.79931  1.0000
  Si          0.65979      0.37399      0.46715  1.0000
  Si          0.67521      0.30743      0.13237  1.0000
  Si          0.51916      0.40868      0.96754  1.0000
  Si          0.56978      0.09864      0.30532  1.0000
  Si          0.87775      0.46686      0.63366  1.0000
  Si          0.45249      0.57820      0.46318  1.0000
  Si          0.40668      0.87746      0.79605  1.0000
  Si          0.09489      0.52266      0.12564  1.0000
  Si          0.40264      0.52524      0.36037  1.0000
  Si          0.09257      0.57581      0.02258  1.0000
  Si          0.46081      0.88379      0.69424  1.0000
  Si          0.57213      0.45853      0.86473  1.0000
  Si          0.87141      0.41273      0.53185  1.0000
  Si          0.51661      0.10095      0.20227  1.0000
  Si          0.29179      0.38783      0.84821  1.0000
  Si          0.58784      0.88868      0.18625  1.0000
  Si          0.08021      0.69388      0.51567  1.0000
  Si          0.68422      0.59216      0.34977  1.0000
  Si          0.38922      0.09307      0.68174  1.0000
  Si          0.87969      0.28660      0.00869  1.0000
  Si          0.38179      0.29786      0.47970  1.0000
  Si          0.88263      0.59389      0.14165  1.0000
  Si          0.68783      0.08625      0.81223  1.0000
  Si          0.58609      0.69026      0.97813  1.0000
  Si          0.08702      0.39527      0.64617  1.0000
  Si          0.28057      0.88576      0.31922  1.0000
  Si          0.24070      0.33333      0.94888  1.0000
  Si          0.65302      0.89876      0.28901  1.0000
  Si          0.07912      0.74582      0.61659  1.0000
  Si          0.73169      0.65384      0.45047  1.0000
  Si          0.32925      0.07866      0.78252  1.0000
  Si          0.88956      0.23934      0.11208  1.0000
  Si          0.32729      0.24677      0.37902  1.0000
  Si          0.89268      0.65904      0.03889  1.0000
  Si          0.73977      0.08517      0.71131  1.0000
  Si          0.64778      0.73773      0.87744  1.0000
  Si          0.07261      0.33530      0.54538  1.0000
  Si          0.23330      0.89562      0.21582  1.0000
  Si          0.96157      0.11429      0.96230  1.0000
  Si          0.86973      0.83941      0.29828  1.0000
  Si          0.14041      0.02549      0.63156  1.0000
  Si          0.01023      0.87399      0.46579  1.0000
  Si          0.11157      0.13967      0.79713  1.0000
  Si          0.83469      0.96307      0.13181  1.0000
  Si          0.10825      0.96764      0.36560  1.0000
  Si          0.83334      0.87577      0.02962  1.0000
  Si          0.01944      0.14646      0.69634  1.0000
  Si          0.86793      0.01627      0.86211  1.0000
  Si          0.13363      0.11763      0.53078  1.0000
  Si          0.95702      0.84074      0.19609  1.0000
  O2          0.91340      0.00191      0.99941  1.0000
  O2          0.99588      0.91946      0.32849  1.0000
  O2          0.06003      0.06608      0.66395  1.0000
  O2          0.05290      0.99515      0.49850  1.0000
  O2          0.98908      0.05893      0.82940  1.0000
  O2          0.92169      0.92774      0.16395  1.0000
  O3          0.32679      0.56746      0.32764  1.0000
  O2          0.41343      0.76012      0.66108  1.0000
  O2          0.22012      0.65093      0.99153  1.0000
  O2          0.64852      0.40822      0.83315  1.0000
  O2          0.56832      0.22862      0.17147  1.0000
  O2          0.74312      0.33551      0.50056  1.0000
  O3          0.56138      0.33282      0.00026  1.0000
  O2          0.75407      0.41948      0.66683  1.0000
  O2          0.64489      0.22619      0.33637  1.0000
  O2          0.40217      0.65458      0.49475  1.0000
  O2          0.22257      0.57438      0.15643  1.0000
  O2          0.32945      0.74917      0.82734  1.0000
  O2          0.11504      0.20490      0.96902  1.0000
  O2          0.78966      0.91316      0.30441  1.0000
  O2          0.07948      0.87145      0.63706  1.0000
  O2          0.85610      0.78184      0.47108  1.0000
  O2          0.20139      0.07551      0.80229  1.0000
  O2          0.89479      0.11770      0.13396  1.0000
  O2          0.19885      0.12111      0.35888  1.0000
  O2          0.90708      0.79568      0.02349  1.0000
  O2          0.86540      0.08553      0.69084  1.0000
  O2          0.77578      0.86213      0.85682  1.0000
  O2          0.06946      0.20745      0.52561  1.0000
  O2          0.11165      0.90084      0.19395  1.0000
  O2          0.91205      0.84502      0.24639  1.0000
  O2          0.12368      0.06430      0.58118  1.0000
  O2          0.92307      0.05226      0.91286  1.0000
  O2          0.05825      0.12972      0.74672  1.0000
  O2          0.83897      0.91809      0.08151  1.0000
  O2          0.04622      0.92913      0.41505  1.0000
  O2          0.89319      0.19841      0.97045  1.0000
  O2          0.78462      0.68864      0.31131  1.0000
  O2          0.29277      0.09689      0.64346  1.0000
  O2          0.08003      0.79194      0.47723  1.0000
  O2          0.19502      0.29083      0.80953  1.0000
  O2          0.68559      0.89296      0.14755  1.0000
  O2          0.19239      0.89927      0.35746  1.0000
  O2          0.68257      0.79066      0.01659  1.0000
  O2          0.09084      0.29882      0.68444  1.0000
  O2          0.78589      0.08607      0.85068  1.0000
  O2          0.28479      0.20108      0.51837  1.0000
  O2          0.88691      0.69164      0.18035  1.0000
  O3          0.29353      0.61375      0.24249  1.0000
  O2          0.34260      0.67393      0.57859  1.0000
  O2          0.30857      0.66823      0.91040  1.0000
  O2          0.66788      0.34865      0.74931  1.0000
  O3          0.60768      0.29955      0.08542  1.0000
  O2          0.66219      0.31464      0.41751  1.0000
  O2          0.36121      0.32355      0.96798  1.0000
  O2          0.65785      0.03127      0.30535  1.0000
  O2          0.94763      0.62344      0.63594  1.0000
  O2          0.60899      0.66411      0.46747  1.0000
  O2          0.31895      0.94529      0.79995  1.0000
  O2          0.02062      0.36670      0.12883  1.0000
  O2          0.31751      0.36728      0.35992  1.0000
  O2          0.02519      0.66387      0.02255  1.0000
  O2          0.61739      0.95368      0.69196  1.0000
  O2          0.65804      0.61502      0.86043  1.0000
  O2          0.93925      0.32500      0.52796  1.0000
  O2          0.36065      0.02667      0.19907  1.0000
  O3          0.74558      0.27839      0.00159  1.0000
  O2          0.68508      0.45779      0.34324  1.0000
  O2          0.52444      0.22770      0.67545  1.0000
  O2          0.21262      0.69202      0.50697  1.0000
  O2          0.29384      0.52204      0.83864  1.0000
  O2          0.45093      0.75906      0.17692  1.0000
  O3          0.27237      0.75166      0.32631  1.0000
  O2          0.45172      0.69112      0.98466  1.0000
  O2          0.22165      0.53049      0.65245  1.0000
  O2          0.68596      0.21867      0.82094  1.0000
  O2          0.51600      0.29991      0.48926  1.0000
  O2          0.75301      0.45698      0.15099  1.0000
  O3          0.76755      0.54379      0.01751  1.0000
  O2          0.45081      0.24055      0.36004  1.0000
  O2          0.74174      0.21300      0.69286  1.0000
  O2          0.19824      0.46005      0.52457  1.0000
  O2          0.52448      0.74045      0.85660  1.0000
  O2          0.23441      0.77136      0.19593  1.0000
  O3          0.53777      0.77364      0.31039  1.0000
  O2          0.23448      0.45685      0.96787  1.0000
  O2          0.20695      0.74779      0.63505  1.0000
  O2          0.45399      0.20428      0.80333  1.0000
  O2          0.73441      0.53054      0.47130  1.0000
  O2          0.76531      0.24045      0.13198  1.0000
  O2          0.21879      0.31465      0.89454  1.0000
  O2          0.65500      0.88850      0.23353  1.0000
  O2          0.07857      0.76475      0.56217  1.0000
  O2          0.75349      0.66950      0.39604  1.0000
  O2          0.31329      0.08446      0.72816  1.0000
  O2          0.88759      0.22491      0.05772  1.0000
  O2          0.30861      0.22486      0.43336  1.0000
  O2          0.88243      0.66104      0.09437  1.0000
  O2          0.75869      0.08462      0.76574  1.0000
  O2          0.66343      0.75953      0.93186  1.0000
  O2          0.07841      0.31934      0.59974  1.0000
  O2          0.21887      0.89366      0.27018  1.0000
  O2          0.56998      0.55178      0.98899  1.0000
  O2          0.42807      0.00493      0.32595  1.0000
  O2          0.96297      0.41013      0.65615  1.0000
  O2          0.39408      0.43686      0.48659  1.0000
  O2          0.54771      0.95986      0.81996  1.0000
  O2          0.00732      0.57699      0.14645  1.0000
  O2          0.54574      0.57605      0.33891  1.0000
  O2          0.99886      0.43410      0.00196  1.0000
  O2          0.40408      0.96902      0.67175  1.0000
  O2          0.43079      0.40012      0.84131  1.0000
  O2          0.95382      0.55377      0.50794  1.0000
  O2          0.57094      0.01337      0.18145  1.0000
  O2          0.56308      0.14425      0.25380  1.0000
  O2          0.82156      0.41271      0.58312  1.0000
  O2          0.57260      0.41121      0.91623  1.0000
  O2          0.40666      0.82760      0.74478  1.0000
  O2          0.13819      0.56912      0.07410  1.0000
  O2          0.40517      0.57866      0.41167  1.0000
  F           0.42433      0.85262      0.25852  1.0000
  F           0.08362      0.54426      0.58086  1.0000
  F           0.43605      0.54209      0.91334  1.0000
  F           0.53821      0.08967      0.74704  1.0000
  F           0.84654      0.43035      0.06938  1.0000
  F           0.53605      0.44211      0.41456  1.0000
