data_cif

_audit_creation_method             'generated by GULP'

_symmetry_space_group_name_H-M     'P 1'
_symmetry_Int_Tables_number        1
_symmetry_cell_setting             triclinic

_cell_length_a                       11.9213
_cell_length_b                       12.0588
_cell_length_c                       29.4232
_cell_angle_alpha                   90.0009
_cell_angle_beta                    90.7963
_cell_angle_gamma                  120.3825

loop_
_atom_site_label
_atom_site_fract_x
_atom_site_fract_y
_atom_site_fract_z
_atom_site_occupancy
  Ge          0.69960      0.37570      0.03389  1.0000
  Si          0.60752      0.30761      0.36487  1.0000
  Si          0.65986      0.28724      0.69920  1.0000
  Si          0.29243      0.61764      0.52773  1.0000
  Si          0.36029      0.66184      0.86049  1.0000
  Si          0.30630      0.69489      0.19476  1.0000
  Si          0.35896      0.68333      0.29515  1.0000
  Si          0.30657      0.61060      0.96082  1.0000
  Ge          0.26677      0.65932      0.62614  1.0000
  Si          0.60616      0.28477      0.79954  1.0000
  Si          0.66017      0.37184      0.46526  1.0000
  Si          0.67402      0.30842      0.13230  1.0000
  Si          0.51997      0.41030      0.96666  1.0000
  Si          0.56887      0.09367      0.30242  1.0000
  Si          0.87331      0.46403      0.63583  1.0000
  Si          0.44963      0.56890      0.45921  1.0000
  Si          0.39772      0.87244      0.79619  1.0000
  Si          0.09564      0.52308      0.12744  1.0000
  Si          0.39761      0.50805      0.35760  1.0000
  Si          0.09310      0.57391      0.02419  1.0000
  Si          0.44646      0.87354      0.69337  1.0000
  Si          0.56872      0.45793      0.86384  1.0000
  Si          0.87081      0.41067      0.53258  1.0000
  Si          0.51684      0.10250      0.20082  1.0000
  Si          0.28541      0.38548      0.84720  1.0000
  Si          0.58759      0.89625      0.18288  1.0000
  Si          0.08504      0.69574      0.51830  1.0000
  Si          0.68121      0.58143      0.34645  1.0000
  Si          0.38029      0.08710      0.68254  1.0000
  Si          0.87934      0.28517      0.00958  1.0000
  Si          0.37889      0.29191      0.47714  1.0000
  Si          0.88140      0.59392      0.14172  1.0000
  Si          0.68103      0.08330      0.81283  1.0000
  Si          0.58614      0.69003      0.97749  1.0000
  Si          0.08707      0.38905      0.65045  1.0000
  Si          0.28528      0.88346      0.31358  1.0000
  Si          0.23881      0.33318      0.94786  1.0000
  Si          0.64310      0.89313      0.28390  1.0000
  Si          0.07368      0.74876      0.62087  1.0000
  Si          0.73149      0.64875      0.44705  1.0000
  Si          0.32342      0.07539      0.78326  1.0000
  Si          0.89050      0.24104      0.11306  1.0000
  Si          0.32339      0.23328      0.37613  1.0000
  Si          0.89271      0.65825      0.03915  1.0000
  Si          0.72761      0.07757      0.71216  1.0000
  Si          0.64302      0.73519      0.87677  1.0000
  Si          0.07595      0.33377      0.54697  1.0000
  Si          0.23498      0.90049      0.21298  1.0000
  Si          0.96054      0.11266      0.96263  1.0000
  Si          0.85995      0.82831      0.29695  1.0000
  Si          0.13004      0.02318      0.63077  1.0000
  Si          0.01195      0.86985      0.46457  1.0000
  Si          0.10451      0.13430      0.79752  1.0000
  Si          0.83442      0.96567      0.13083  1.0000
  Si          0.10653      0.95160      0.36307  1.0000
  Si          0.83639      0.87634      0.02925  1.0000
  Si          0.00589      0.13535      0.69740  1.0000
  Si          0.86193      0.01301      0.86251  1.0000
  Si          0.13205      0.11449      0.52920  1.0000
  Si          0.95452      0.84112      0.19546  1.0000
  O2          0.91752      0.00101      0.99919  1.0000
  O2          0.98324      0.90611      0.33001  1.0000
  O2          0.04893      0.06675      0.66083  1.0000
  O2          0.04974      0.99355      0.49570  1.0000
  O2          0.98322      0.05658      0.83001  1.0000
  O2          0.91674      0.92705      0.16432  1.0000
  O2          0.31987      0.55512      0.32455  1.0000
  O3          0.40471      0.75562      0.66077  1.0000
  O2          0.21946      0.64811      0.99278  1.0000
  O2          0.64519      0.40718      0.83264  1.0000
  O2          0.56780      0.23142      0.17125  1.0000
  O2          0.74420      0.33587      0.49983  1.0000
  O3          0.56168      0.33410      0.99926  1.0000
  O2          0.74695      0.41186      0.66724  1.0000
  O2          0.64661      0.21849      0.33548  1.0000
  O2          0.39866      0.64686      0.48879  1.0000
  O2          0.22226      0.57490      0.16019  1.0000
  O2          0.32126      0.74522      0.82739  1.0000
  O2          0.11499      0.20514      0.96831  1.0000
  O2          0.76856      0.88988      0.30412  1.0000
  O2          0.05761      0.86923      0.63615  1.0000
  O2          0.85641      0.77784      0.46736  1.0000
  O2          0.19635      0.07278      0.80373  1.0000
  O2          0.89574      0.11965      0.13450  1.0000
  O2          0.19792      0.10456      0.35591  1.0000
  O2          0.90879      0.79479      0.02387  1.0000
  O2          0.85144      0.07336      0.69172  1.0000
  O2          0.77009      0.85965      0.85630  1.0000
  O2          0.07073      0.20715      0.52553  1.0000
  O2          0.11006      0.90465      0.19266  1.0000
  O2          0.90969      0.84498      0.24601  1.0000
  O2          0.12237      0.06155      0.57920  1.0000
  O2          0.91802      0.04876      0.91337  1.0000
  O2          0.04843      0.11397      0.74665  1.0000
  O2          0.84410      0.92241      0.08082  1.0000
  O2          0.05678      0.91853      0.41401  1.0000
  O2          0.89098      0.19499      0.97180  1.0000
  O2          0.77882      0.67631      0.30779  1.0000
  O2          0.28196      0.09029      0.64414  1.0000
  O2          0.08093      0.78999      0.47981  1.0000
  O2          0.18706      0.28639      0.80845  1.0000
  O2          0.68310      0.89660      0.14417  1.0000
  O2          0.18767      0.88073      0.35224  1.0000
  O2          0.68447      0.79156      0.01589  1.0000
  O2          0.07543      0.28723      0.68824  1.0000
  O2          0.77939      0.08255      0.85158  1.0000
  O2          0.28337      0.19675      0.51586  1.0000
  O2          0.88552      0.69228      0.18022  1.0000
  O2          0.30304      0.63150      0.24396  1.0000
  O3          0.35970      0.67564      0.57527  1.0000
  O2          0.30204      0.66410      0.91031  1.0000
  O2          0.66440      0.34528      0.74972  1.0000
  O3          0.60671      0.29911      0.08477  1.0000
  O2          0.66344      0.31171      0.41606  1.0000
  O2          0.36126      0.32504      0.96672  1.0000
  O2          0.65551      0.02414      0.30426  1.0000
  O2          0.94087      0.61918      0.63632  1.0000
  O2          0.60703      0.65696      0.46364  1.0000
  O2          0.31265      0.94302      0.80068  1.0000
  O2          0.02329      0.36806      0.13003  1.0000
  O2          0.31097      0.35187      0.35577  1.0000
  O2          0.02553      0.66149      0.02370  1.0000
  O2          0.60516      0.94698      0.69331  1.0000
  O2          0.65379      0.61359      0.85935  1.0000
  O2          0.94316      0.32800      0.53000  1.0000
  O2          0.35944      0.03316      0.19639  1.0000
  O3          0.74501      0.27789      0.00181  1.0000
  O2          0.68306      0.44841      0.34114  1.0000
  O2          0.51549      0.22232      0.67591  1.0000
  O2          0.21587      0.69111      0.50954  1.0000
  O2          0.28576      0.51830      0.83796  1.0000
  O2          0.45053      0.76513      0.17320  1.0000
  O2          0.28342      0.74859      0.31888  1.0000
  O2          0.45094      0.69005      0.98412  1.0000
  O3          0.22138      0.51611      0.65822  1.0000
  O2          0.68069      0.21577      0.82207  1.0000
  O2          0.51594      0.29785      0.48683  1.0000
  O2          0.75058      0.45846      0.15048  1.0000
  O3          0.76707      0.54291      0.01743  1.0000
  O2          0.45044      0.23267      0.35831  1.0000
  O2          0.73445      0.20675      0.69286  1.0000
  O2          0.19908      0.46066      0.52736  1.0000
  O2          0.51760      0.73676      0.85630  1.0000
  O2          0.23034      0.77484      0.19145  1.0000
  O2          0.51604      0.76546      0.30171  1.0000
  O2          0.23198      0.45552      0.96717  1.0000
  O3          0.19932      0.75907      0.64260  1.0000
  O2          0.44884      0.20237      0.80373  1.0000
  O2          0.73613      0.52775      0.46858  1.0000
  O2          0.76738      0.24480      0.13267  1.0000
  O2          0.21394      0.31337      0.89350  1.0000
  O2          0.66101      0.89577      0.22950  1.0000
  O2          0.08418      0.76214      0.56544  1.0000
  O2          0.75125      0.66118      0.39266  1.0000
  O2          0.30471      0.07931      0.72882  1.0000
  O2          0.88726      0.22512      0.05874  1.0000
  O2          0.30546      0.21801      0.43052  1.0000
  O2          0.88225      0.66116      0.09458  1.0000
  O2          0.75250      0.08265      0.76653  1.0000
  O2          0.66172      0.75782      0.93121  1.0000
  O2          0.07917      0.32109      0.60129  1.0000
  O2          0.21523      0.89316      0.26737  1.0000
  O2          0.57111      0.55296      0.98828  1.0000
  O2          0.42670      0.00650      0.32455  1.0000
  O2          0.96681      0.41545      0.65644  1.0000
  O2          0.39038      0.43012      0.48367  1.0000
  O2          0.54085      0.95654      0.81968  1.0000
  O2          0.00575      0.57566      0.14738  1.0000
  O2          0.53978      0.56304      0.33548  1.0000
  O2          0.99961      0.43183      0.00359  1.0000
  O2          0.39531      0.96505      0.67175  1.0000
  O2          0.42559      0.39890      0.84035  1.0000
  O2          0.96070      0.55313      0.51264  1.0000
  O2          0.57609      0.02296      0.17636  1.0000
  O2          0.56886      0.15010      0.25237  1.0000
  O2          0.82628      0.41248      0.58395  1.0000
  O2          0.57225      0.41305      0.91534  1.0000
  O2          0.39419      0.82402      0.74469  1.0000
  O2          0.14015      0.56941      0.07607  1.0000
  O2          0.39762      0.56449      0.40766  1.0000
  F           0.43448      0.88871      0.24806  1.0000
  F           0.11931      0.56754      0.59021  1.0000
  F           0.43246      0.54088      0.91250  1.0000
  F           0.53398      0.09163      0.74753  1.0000
  F           0.84709      0.43142      0.06981  1.0000
  F           0.53201      0.43748      0.41197  1.0000
