data_cif

_audit_creation_method             'generated by GULP'

_symmetry_space_group_name_H-M     'P 1'
_symmetry_Int_Tables_number        1
_symmetry_cell_setting             triclinic

_cell_length_a                       11.9188
_cell_length_b                       11.9943
_cell_length_c                       29.4348
_cell_angle_alpha                   89.6569
_cell_angle_beta                    90.6914
_cell_angle_gamma                  119.7920

loop_
_atom_site_label
_atom_site_fract_x
_atom_site_fract_y
_atom_site_fract_z
_atom_site_occupancy
  Ge          0.69960      0.37570      0.03389  1.0000
  Si          0.60559      0.30216      0.36560  1.0000
  Si          0.65290      0.28619      0.69828  1.0000
  Si          0.26969      0.60826      0.53279  1.0000
  Si          0.35810      0.66431      0.86431  1.0000
  Si          0.29640      0.68357      0.19848  1.0000
  Si          0.35492      0.68355      0.29884  1.0000
  Si          0.30630      0.60826      0.96453  1.0000
  Si          0.27397      0.66431      0.63301  1.0000
  Si          0.60104      0.28618      0.79905  1.0000
  Ge          0.64382      0.37575      0.46344  1.0000
  Si          0.66434      0.30217      0.13174  1.0000
  Si          0.51866      0.40733      0.96629  1.0000
  Si          0.55808      0.09163      0.29938  1.0000
  Si          0.86238      0.45985      0.63373  1.0000
  Si          0.44436      0.57020      0.46855  1.0000
  Si          0.39665      0.87552      0.79961  1.0000
  Si          0.08659      0.51253      0.13191  1.0000
  Si          0.39369      0.51251      0.36540  1.0000
  Si          0.09356      0.57019      0.02876  1.0000
  Si          0.44663      0.87552      0.69771  1.0000
  Si          0.56521      0.45983      0.86361  1.0000
  Si          0.85639      0.40734      0.53104  1.0000
  Si          0.50133      0.09165      0.19796  1.0000
  Si          0.28250      0.38826      0.84910  1.0000
  Si          0.57430      0.88420      0.18298  1.0000
  Si          0.06929      0.68728      0.51824  1.0000
  Si          0.68079      0.58444      0.35299  1.0000
  Si          0.37442      0.08465      0.68330  1.0000
  Si          0.88101      0.28423      0.01206  1.0000
  Si          0.37094      0.28424      0.48526  1.0000
  Si          0.87142      0.58446      0.14433  1.0000
  Si          0.67798      0.08464      0.81403  1.0000
  Si          0.58573      0.68728      0.97909  1.0000
  Si          0.07351      0.38827      0.64822  1.0000
  Si          0.27766      0.88418      0.31435  1.0000
  Si          0.23781      0.33033      0.94974  1.0000
  Si          0.63551      0.89066      0.28387  1.0000
  Si          0.06438      0.73742      0.61907  1.0000
  Si          0.73093      0.65577      0.45521  1.0000
  Si          0.31991      0.07757      0.78408  1.0000
  Si          0.88146      0.23297      0.11539  1.0000
  Si          0.31926      0.23295      0.38193  1.0000
  Si          0.89254      0.65573      0.04210  1.0000
  Si          0.72542      0.07758      0.71324  1.0000
  Si          0.64079      0.73741      0.87826  1.0000
  Si          0.06024      0.33033      0.54759  1.0000
  Si          0.22293      0.89068      0.21346  1.0000
  Si          0.96067      0.11083      0.96398  1.0000
  Si          0.85540      0.82995      0.29969  1.0000
  Si          0.12315      0.01517      0.63340  1.0000
  Si          0.00663      0.87319      0.46650  1.0000
  Si          0.10201      0.13969      0.79907  1.0000
  Si          0.82233      0.95544      0.13239  1.0000
  Si          0.10086      0.95542      0.36494  1.0000
  Si          0.83429      0.87318      0.03082  1.0000
  Si          0.00544      0.13970      0.69826  1.0000
  Si          0.85977      0.01516      0.86392  1.0000
  Si          0.11789      0.11083      0.53335  1.0000
  Si          0.94233      0.82997      0.19764  1.0000
  O2          0.91521      0.99716      0.00022  1.0000
  O2          0.98028      0.91459      0.33093  1.0000
  O2          0.04567      0.05893      0.66589  1.0000
  O2          0.04969      0.99717      0.49711  1.0000
  O2          0.98101      0.05891      0.83144  1.0000
  O2          0.90210      0.91462      0.16640  1.0000
  O2          0.31848      0.56062      0.33157  1.0000
  O2          0.39858      0.75035      0.66549  1.0000
  O2          0.22097      0.64492      0.99803  1.0000
  O2          0.64056      0.40963      0.83137  1.0000
  O2          0.55079      0.21990      0.16781  1.0000
  O3          0.73525      0.33219      0.49936  1.0000
  O3          0.56461      0.33216      0.99798  1.0000
  O2          0.73683      0.40965      0.66597  1.0000
  O2          0.63687      0.21987      0.32954  1.0000
  O2          0.39166      0.64492      0.49929  1.0000
  O2          0.20992      0.56065      0.16574  1.0000
  O2          0.31952      0.75034      0.83183  1.0000
  O2          0.11476      0.20044      0.96943  1.0000
  O2          0.76315      0.89207      0.30418  1.0000
  O2          0.06272      0.86213      0.63945  1.0000
  O2          0.85146      0.79345      0.47052  1.0000
  O2          0.19399      0.07725      0.80455  1.0000
  O2          0.88201      0.10892      0.13736  1.0000
  O2          0.19468      0.10891      0.35996  1.0000
  O2          0.90969      0.79341      0.02680  1.0000
  O2          0.85102      0.07726      0.69278  1.0000
  O2          0.76716      0.86212      0.85788  1.0000
  O2          0.05340      0.20044      0.52790  1.0000
  O2          0.09670      0.89210      0.19315  1.0000
  O2          0.90175      0.83574      0.24866  1.0000
  O2          0.10107      0.04937      0.58266  1.0000
  O2          0.91604      0.04936      0.91466  1.0000
  O2          0.04667      0.12560      0.74866  1.0000
  O2          0.83823      0.91900      0.08209  1.0000
  O2          0.04855      0.91901      0.41524  1.0000
  O2          0.89435      0.19621      0.97389  1.0000
  O2          0.77560      0.68064      0.31413  1.0000
  O2          0.27619      0.08588      0.64457  1.0000
  O2          0.07081      0.78707      0.48009  1.0000
  O2          0.18330      0.29093      0.81086  1.0000
  O2          0.67017      0.88397      0.14432  1.0000
  O2          0.18156      0.88395      0.35301  1.0000
  O2          0.68398      0.78707      0.01724  1.0000
  O2          0.07539      0.29093      0.68646  1.0000
  O2          0.77744      0.08586      0.85275  1.0000
  O2          0.26958      0.19623      0.52344  1.0000
  O2          0.87282      0.68066      0.18319  1.0000
  O2          0.29627      0.62479      0.24866  1.0000
  O2          0.33219      0.66480      0.58282  1.0000
  O2          0.30036      0.66481      0.91449  1.0000
  O2          0.65545      0.34315      0.74867  1.0000
  O3          0.60261      0.29832      0.08371  1.0000
  O3          0.66347      0.29835      0.41363  1.0000
  O2          0.36099      0.32161      0.96757  1.0000
  O2          0.64496      0.02174      0.30260  1.0000
  O2          0.93293      0.61552      0.63756  1.0000
  O2          0.60044      0.65871      0.46941  1.0000
  O2          0.30977      0.94530      0.80246  1.0000
  O2          0.01294      0.35722      0.13358  1.0000
  O2          0.31203      0.35720      0.36374  1.0000
  O2          0.02596      0.65868      0.02790  1.0000
  O2          0.60328      0.94530      0.69486  1.0000
  O2          0.65034      0.61551      0.85977  1.0000
  O2          0.92834      0.32161      0.52976  1.0000
  O2          0.34456      0.02176      0.19474  1.0000
  O3          0.74876      0.27958      0.00257  1.0000
  O2          0.67800      0.44985      0.34561  1.0000
  O2          0.50856      0.21790      0.67576  1.0000
  O2          0.20383      0.68664      0.51038  1.0000
  O2          0.28268      0.52228      0.84116  1.0000
  O2          0.43888      0.75119      0.17568  1.0000
  O2          0.28007      0.75116      0.32164  1.0000
  O2          0.45054      0.68664      0.98694  1.0000
  O2          0.20736      0.52229      0.65616  1.0000
  O2          0.67709      0.21789      0.82157  1.0000
  O3          0.49854      0.27961      0.49476  1.0000
  O2          0.73962      0.44986      0.15172  1.0000
  O3          0.76907      0.54375      0.01879  1.0000
  O2          0.44783      0.23711      0.36375  1.0000
  O2          0.72684      0.20401      0.69348  1.0000
  O2          0.18832      0.45268      0.52718  1.0000
  O2          0.51458      0.73967      0.85915  1.0000
  O2          0.21957      0.76336      0.19395  1.0000
  O2          0.51155      0.76333      0.30338  1.0000
  O2          0.23209      0.45269      0.97015  1.0000
  O2          0.19286      0.73968      0.63817  1.0000
  O2          0.44491      0.20400      0.80385  1.0000
  O3          0.74240      0.54380      0.47854  1.0000
  O2          0.75705      0.23712      0.13358  1.0000
  O2          0.21316      0.31419      0.89547  1.0000
  O2          0.65072      0.88882      0.22944  1.0000
  O2          0.06470      0.75670      0.56463  1.0000
  O2          0.74650      0.65557      0.39997  1.0000
  O2          0.30051      0.08007      0.72968  1.0000
  O2          0.88366      0.21985      0.06111  1.0000
  O2          0.30392      0.21985      0.43622  1.0000
  O2          0.87682      0.65557      0.09735  1.0000
  O2          0.74732      0.08007      0.76765  1.0000
  O2          0.65975      0.75670      0.93270  1.0000
  O2          0.06876      0.31419      0.60185  1.0000
  O2          0.20587      0.88882      0.26789  1.0000
  O2          0.57079      0.54903      0.98877  1.0000
  O2          0.41780      0.00883      0.32299  1.0000
  O2          0.94777      0.40243      0.65648  1.0000
  O2          0.39492      0.42971      0.48988  1.0000
  O2          0.53885      0.95957      0.82277  1.0000
  O2          0.99466      0.56438      0.15100  1.0000
  O2          0.53747      0.56436      0.34632  1.0000
  O2          0.00252      0.42969      0.00744  1.0000
  O2          0.38848      0.95958      0.67455  1.0000
  O2          0.42241      0.40242      0.84085  1.0000
  O2          0.94596      0.54904      0.50856  1.0000
  O2          0.55882      0.00885      0.17435  1.0000
  O2          0.55523      0.14267      0.24867  1.0000
  O2          0.81007      0.41154      0.58270  1.0000
  O2          0.56921      0.41153      0.91463  1.0000
  O2          0.39544      0.82313      0.74866  1.0000
  O2          0.13595      0.56214      0.08101  1.0000
  O2          0.39392      0.56213      0.41630  1.0000
  F           0.42439      0.88101      0.24867  1.0000
  F           0.07807      0.54078      0.58303  1.0000
  F           0.43045      0.54077      0.91430  1.0000
  F           0.52630      0.08485      0.74866  1.0000
  F           0.84331      0.42697      0.07171  1.0000
  F           0.55139      0.42699      0.42561  1.0000
