data_cif

_audit_creation_method             'generated by GULP'

_symmetry_space_group_name_H-M     'P 1'
_symmetry_Int_Tables_number        1
_symmetry_cell_setting             triclinic

_cell_length_a                       11.9412
_cell_length_b                       12.0058
_cell_length_c                       29.4665
_cell_angle_alpha                   89.9500
_cell_angle_beta                    90.0700
_cell_angle_gamma                  120.2322

loop_
_atom_site_label
_atom_site_fract_x
_atom_site_fract_y
_atom_site_fract_z
_atom_site_occupancy
  Ge          0.69960      0.37570      0.03389  1.0000
  Si          0.61173      0.31584      0.36793  1.0000
  Si          0.66690      0.28735      0.70037  1.0000
  Si          0.28561      0.61189      0.53318  1.0000
  Si          0.36886      0.66467      0.86499  1.0000
  Si          0.31372      0.69522      0.20246  1.0000
  Si          0.36827      0.69328      0.30296  1.0000
  Si          0.31228      0.61430      0.96616  1.0000
  Si          0.28797      0.66743      0.63365  1.0000
  Si          0.61189      0.28601      0.80101  1.0000
  Si          0.66608      0.37099      0.46848  1.0000
  Si          0.69036      0.31360      0.13606  1.0000
  Si          0.51849      0.40634      0.96750  1.0000
  Si          0.57523      0.10463      0.30427  1.0000
  Si          0.87677      0.46025      0.63517  1.0000
  Si          0.45751      0.57346      0.46832  1.0000
  Si          0.40616      0.87487      0.80025  1.0000
  Si          0.10924      0.52277      0.13527  1.0000
  Si          0.40607      0.51961      0.36676  1.0000
  Ge          0.09308      0.56434      0.03242  1.0000
  Si          0.45992      0.87776      0.69862  1.0000
  Si          0.57229      0.45756      0.86573  1.0000
  Si          0.87637      0.40849      0.53354  1.0000
  Si          0.52260      0.10417      0.20284  1.0000
  Si          0.29138      0.38723      0.85097  1.0000
  Si          0.59349      0.89650      0.18766  1.0000
  Si          0.08480      0.68924      0.51868  1.0000
  Si          0.68769      0.59258      0.35235  1.0000
  Si          0.38814      0.08585      0.68483  1.0000
  Si          0.88937      0.28391      0.01473  1.0000
  Si          0.38650      0.29333      0.48260  1.0000
  Si          0.89642      0.59631      0.14859  1.0000
  Si          0.68841      0.08462      0.81517  1.0000
  Si          0.59183      0.68770      0.98068  1.0000
  Si          0.08686      0.38892      0.64877  1.0000
  Si          0.29270      0.89474      0.31772  1.0000
  Si          0.23957      0.33290      0.95163  1.0000
  Si          0.65105      0.90313      0.28839  1.0000
  Si          0.07822      0.73934      0.61942  1.0000
  Si          0.73724      0.65105      0.45302  1.0000
  Si          0.32957      0.07630      0.78545  1.0000
  Si          0.90406      0.24248      0.11781  1.0000
  Si          0.32931      0.24203      0.38191  1.0000
  Si          0.90567      0.66010      0.04664  1.0000
  Si          0.73932      0.07953      0.71445  1.0000
  Si          0.65003      0.73573      0.88003  1.0000
  Si          0.07734      0.33050      0.54806  1.0000
  Si          0.24206      0.90350      0.21705  1.0000
  Si          0.96047      0.10807      0.96566  1.0000
  Si          0.86807      0.83975      0.30126  1.0000
  Si          0.13983      0.01862      0.63401  1.0000
  Si          0.01735      0.86955      0.46805  1.0000
  Si          0.11229      0.13908      0.79991  1.0000
  Si          0.83912      0.96327      0.13455  1.0000
  Si          0.11142      0.96175      0.36710  1.0000
  Si          0.83816      0.87248      0.03294  1.0000
  Si          0.01966      0.14109      0.69901  1.0000
  Si          0.86836      0.01488      0.86492  1.0000
  Si          0.13828      0.11235      0.53326  1.0000
  Si          0.96210      0.84291      0.19995  1.0000
  O2          0.92169      0.99116      0.99993  1.0000
  O2          0.99239      0.91915      0.33290  1.0000
  O2          0.05964      0.06081      0.66607  1.0000
  O2          0.05905      0.99168      0.50015  1.0000
  O2          0.98883      0.05747      0.83163  1.0000
  O2          0.92240      0.92165      0.16584  1.0000
  O2          0.32882      0.56881      0.33469  1.0000
  O2          0.41202      0.75289      0.66602  1.0000
  O3          0.23004      0.65224      0.99783  1.0000
  O2          0.64968      0.40819      0.83381  1.0000
  O2          0.57393      0.23150      0.17136  1.0000
  O2          0.74971      0.33194      0.50128  1.0000
  O3          0.56376      0.33051      0.99973  1.0000
  O2          0.75166      0.41126      0.66786  1.0000
  O2          0.65177      0.23060      0.33629  1.0000
  O2          0.40901      0.65046      0.50032  1.0000
  O2          0.22895      0.57019      0.17055  1.0000
  O2          0.32971      0.74863      0.83214  1.0000
  O2          0.11360      0.20575      0.97191  1.0000
  O2          0.77773      0.90302      0.30821  1.0000
  O2          0.07712      0.86462      0.63951  1.0000
  O2          0.86265      0.77795      0.47344  1.0000
  O2          0.20298      0.07578      0.80559  1.0000
  O2          0.90240      0.11760      0.13959  1.0000
  O2          0.20261      0.11579      0.36161  1.0000
  O2          0.90931      0.79016      0.03023  1.0000
  O2          0.86504      0.07886      0.69397  1.0000
  O2          0.77701      0.86110      0.85936  1.0000
  O2          0.07527      0.20334      0.52812  1.0000
  O2          0.11743      0.90685      0.19663  1.0000
  O2          0.91631      0.85323      0.24986  1.0000
  O2          0.12549      0.05745      0.58339  1.0000
  O2          0.92440      0.05275      0.91527  1.0000
  O2          0.06120      0.12727      0.74911  1.0000
  O2          0.84463      0.92542      0.08331  1.0000
  O2          0.05547      0.92170      0.41725  1.0000
  O2          0.88144      0.17990      0.97780  1.0000
  O2          0.78597      0.68835      0.31354  1.0000
  O2          0.29201      0.08854      0.64621  1.0000
  O2          0.08700      0.78792      0.48031  1.0000
  O2          0.19338      0.29001      0.81246  1.0000
  O2          0.68878      0.89342      0.14916  1.0000
  O2          0.19475      0.89295      0.35620  1.0000
  O2          0.68746      0.78669      0.01946  1.0000
  O2          0.08978      0.29277      0.68692  1.0000
  O2          0.78600      0.08478      0.85371  1.0000
  O2          0.29045      0.19544      0.52115  1.0000
  O2          0.89598      0.69186      0.18740  1.0000
  O2          0.31305      0.63747      0.25246  1.0000
  O2          0.34500      0.66892      0.58322  1.0000
  O2          0.31169      0.66608      0.91482  1.0000
  O2          0.66850      0.34417      0.75073  1.0000
  O3          0.63330      0.31497      0.08737  1.0000
  O2          0.66823      0.31561      0.41820  1.0000
  O2          0.36098      0.32090      0.96956  1.0000
  O2          0.66274      0.03591      0.30672  1.0000
  O2          0.94565      0.61638      0.63778  1.0000
  O2          0.61446      0.66101      0.47095  1.0000
  O2          0.31861      0.94345      0.80337  1.0000
  O2          0.03490      0.36593      0.13663  1.0000
  O2          0.31861      0.36347      0.36318  1.0000
  O3          0.03758      0.67387      0.02830  1.0000
  O2          0.61684      0.94729      0.69569  1.0000
  O2          0.65987      0.61371      0.86161  1.0000
  O2          0.94442      0.32073      0.52988  1.0000
  O2          0.36591      0.03530      0.19856  1.0000
  O3          0.75522      0.28128      0.00892  1.0000
  O2          0.68687      0.45840      0.34491  1.0000
  O2          0.52329      0.21978      0.67764  1.0000
  O2          0.21821      0.68761      0.51072  1.0000
  O2          0.29437      0.52189      0.84215  1.0000
  O2          0.45702      0.76444      0.17958  1.0000
  O2          0.29222      0.76078      0.32484  1.0000
  O2          0.45835      0.68890      0.98743  1.0000
  O2          0.22080      0.52407      0.65583  1.0000
  O2          0.68753      0.21778      0.82296  1.0000
  O2          0.52155      0.29512      0.49021  1.0000
  O2          0.76529      0.45981      0.15593  1.0000
  O3          0.77840      0.54116      0.02509  1.0000
  O2          0.45493      0.24048      0.36251  1.0000
  O2          0.74192      0.20660      0.69509  1.0000
  O2          0.20411      0.45573      0.52812  1.0000
  O2          0.52571      0.73917      0.86032  1.0000
  O2          0.23797      0.77566      0.19757  1.0000
  O2          0.52482      0.77735      0.30807  1.0000
  O2          0.23913      0.45747      0.97171  1.0000
  O2          0.20511      0.74038      0.63868  1.0000
  O2          0.45522      0.20224      0.80537  1.0000
  O2          0.73888      0.52681      0.47294  1.0000
  O2          0.77961      0.24746      0.13581  1.0000
  O2          0.21813      0.31497      0.89730  1.0000
  O2          0.66761      0.89998      0.23407  1.0000
  O2          0.08046      0.75899      0.56507  1.0000
  O2          0.75807      0.66798      0.39866  1.0000
  O2          0.31229      0.07946      0.73111  1.0000
  O2          0.90423      0.22725      0.06363  1.0000
  O2          0.31140      0.22283      0.43620  1.0000
  O2          0.89713      0.66520      0.10181  1.0000
  O2          0.75921      0.08128      0.76875  1.0000
  O2          0.66892      0.75629      0.93433  1.0000
  O2          0.08078      0.31405      0.60232  1.0000
  O2          0.22284      0.90112      0.27136  1.0000
  O2          0.57643      0.54859      0.99044  1.0000
  O2          0.43331      0.01896      0.32705  1.0000
  O2          0.96189      0.40371      0.65780  1.0000
  O2          0.40066      0.43237      0.49127  1.0000
  O2          0.54793      0.95936      0.82343  1.0000
  O2          0.01990      0.57821      0.15482  1.0000
  O2          0.54776      0.57838      0.34328  1.0000
  O3          0.01395      0.41961      0.00250  1.0000
  O2          0.40189      0.96090      0.67544  1.0000
  O2          0.43006      0.39799      0.84260  1.0000
  O2          0.95866      0.54958      0.51000  1.0000
  O2          0.58287      0.02385      0.17913  1.0000
  O2          0.57502      0.15776      0.25352  1.0000
  O2          0.82295      0.40723      0.58435  1.0000
  O2          0.57389      0.40735      0.91672  1.0000
  O2          0.40608      0.82331      0.74921  1.0000
  O3          0.16301      0.57151      0.08550  1.0000
  O2          0.40451      0.57228      0.41736  1.0000
  F           0.44292      0.89718      0.25184  1.0000
  F           0.08551      0.53862      0.58297  1.0000
  F           0.44238      0.53692      0.91503  1.0000
  F           0.53828      0.08499      0.74931  1.0000
  F           0.90217      0.45311      0.07144  1.0000
  F           0.53650      0.44304      0.41671  1.0000
