data_cif

_audit_creation_method             'generated by GULP'

_symmetry_space_group_name_H-M     'P 1'
_symmetry_Int_Tables_number        1
_symmetry_cell_setting             triclinic

_cell_length_a                       11.9348
_cell_length_b                       12.0096
_cell_length_c                       29.4534
_cell_angle_alpha                   90.1146
_cell_angle_beta                    90.2671
_cell_angle_gamma                  120.2042

loop_
_atom_site_label
_atom_site_fract_x
_atom_site_fract_y
_atom_site_fract_z
_atom_site_occupancy
  Ge          0.69960      0.37570      0.03389  1.0000
  Si          0.60015      0.30942      0.36495  1.0000
  Si          0.66106      0.28517      0.69782  1.0000
  Si          0.27729      0.60676      0.53070  1.0000
  Si          0.36380      0.66335      0.86163  1.0000
  Si          0.30383      0.68680      0.19967  1.0000
  Si          0.35629      0.68524      0.30012  1.0000
  Si          0.30771      0.61076      0.96169  1.0000
  Si          0.28101      0.66369      0.63119  1.0000
  Si          0.60773      0.28564      0.79853  1.0000
  Si          0.65689      0.36527      0.46553  1.0000
  Si          0.66514      0.30372      0.13180  1.0000
  Si          0.52111      0.40884      0.96609  1.0000
  Si          0.56014      0.09664      0.30096  1.0000
  Si          0.86986      0.45678      0.63252  1.0000
  Si          0.44831      0.56760      0.46582  1.0000
  Si          0.40193      0.87410      0.79760  1.0000
  Ge          0.09086      0.52283      0.13116  1.0000
  Si          0.39468      0.51259      0.36422  1.0000
  Si          0.09570      0.57592      0.02603  1.0000
  Si          0.45412      0.87550      0.69594  1.0000
  Si          0.57070      0.45903      0.86339  1.0000
  Si          0.86801      0.40362      0.53081  1.0000
  Si          0.50487      0.09393      0.19922  1.0000
  Si          0.28871      0.38698      0.84771  1.0000
  Si          0.58111      0.88944      0.18422  1.0000
  Si          0.07633      0.68401      0.51614  1.0000
  Si          0.67626      0.58591      0.34951  1.0000
  Si          0.38218      0.08339      0.68223  1.0000
  Si          0.88150      0.28590      0.01088  1.0000
  Si          0.37742      0.28769      0.47995  1.0000
  Si          0.86907      0.58980      0.14410  1.0000
  Si          0.68430      0.08420      0.81270  1.0000
  Si          0.58686      0.68962      0.97761  1.0000
  Si          0.08022      0.38550      0.64629  1.0000
  Si          0.27769      0.88477      0.31389  1.0000
  Si          0.24046      0.33215      0.94822  1.0000
  Si          0.63831      0.89629      0.28525  1.0000
  Si          0.07106      0.73559      0.61691  1.0000
  Si          0.72788      0.64512      0.45027  1.0000
  Si          0.32530      0.07542      0.78288  1.0000
  Si          0.88349      0.23622      0.11410  1.0000
  Si          0.31790      0.23524      0.37922  1.0000
  Si          0.89218      0.65769      0.04104  1.0000
  Si          0.73360      0.07753      0.71192  1.0000
  Si          0.64552      0.73701      0.87695  1.0000
  Si          0.06930      0.32581      0.54549  1.0000
  Si          0.22432      0.88917      0.21295  1.0000
  Si          0.96202      0.11268      0.96292  1.0000
  Si          0.85540      0.83316      0.29872  1.0000
  Si          0.13287      0.01506      0.63143  1.0000
  Si          0.00836      0.86373      0.46548  1.0000
  Si          0.10797      0.13780      0.79732  1.0000
  Si          0.82685      0.95942      0.13171  1.0000
  Si          0.09969      0.95475      0.36438  1.0000
  Si          0.83474      0.87523      0.02978  1.0000
  Si          0.01346      0.13828      0.69645  1.0000
  Si          0.86499      0.01537      0.86261  1.0000
  Si          0.13003      0.10745      0.53065  1.0000
  Si          0.94472      0.83652      0.19679  1.0000
  O2          0.91657      0.99975      0.99931  1.0000
  O2          0.97876      0.91300      0.33098  1.0000
  O2          0.05306      0.05770      0.66346  1.0000
  O2          0.05018      0.98625      0.49757  1.0000
  O2          0.98598      0.05860      0.82969  1.0000
  O2          0.91282      0.92590      0.16511  1.0000
  O2          0.31739      0.56195      0.33222  1.0000
  O2          0.40575      0.74996      0.66345  1.0000
  O2          0.21997      0.64889      0.99319  1.0000
  O2          0.64682      0.40844      0.83138  1.0000
  O2          0.55344      0.22155      0.16871  1.0000
  O2          0.74115      0.32674      0.49834  1.0000
  O3          0.56395      0.33325      0.99817  1.0000
  O2          0.74525      0.40838      0.66522  1.0000
  O2          0.63793      0.22294      0.33293  1.0000
  O2          0.40041      0.64497      0.49791  1.0000
  O3          0.22066      0.56516      0.16707  1.0000
  O2          0.32463      0.74764      0.82905  1.0000
  O2          0.11641      0.20321      0.96838  1.0000
  O2          0.76508      0.89661      0.30535  1.0000
  O2          0.07031      0.86121      0.63695  1.0000
  O2          0.85366      0.77219      0.47070  1.0000
  O2          0.19846      0.07427      0.80300  1.0000
  O2          0.88269      0.11193      0.13570  1.0000
  O2          0.19118      0.10857      0.35892  1.0000
  O2          0.90809      0.79413      0.02510  1.0000
  O2          0.85885      0.07644      0.69130  1.0000
  O2          0.77289      0.86180      0.85654  1.0000
  O2          0.06699      0.19843      0.52552  1.0000
  O2          0.09824      0.88972      0.19241  1.0000
  O2          0.90539      0.84688      0.24770  1.0000
  O2          0.11785      0.05316      0.58078  1.0000
  O2          0.91991      0.05090      0.91338  1.0000
  O2          0.05457      0.12396      0.74664  1.0000
  O2          0.83894      0.91923      0.08135  1.0000
  O2          0.04671      0.91542      0.41477  1.0000
  O2          0.89498      0.19743      0.97252  1.0000
  O2          0.77348      0.68176      0.31075  1.0000
  O2          0.28528      0.08534      0.64360  1.0000
  O2          0.07813      0.78226      0.47780  1.0000
  O2          0.19088      0.28930      0.80904  1.0000
  O2          0.67576      0.88607      0.14558  1.0000
  O2          0.18084      0.88443      0.35239  1.0000
  O2          0.68395      0.79047      0.01593  1.0000
  O2          0.08366      0.28983      0.68445  1.0000
  O2          0.78279      0.08544      0.85133  1.0000
  O2          0.28209      0.19030      0.51851  1.0000
  O2          0.86475      0.68703      0.18170  1.0000
  O2          0.30101      0.62757      0.24964  1.0000
  O2          0.33738      0.66441      0.58076  1.0000
  O2          0.30475      0.66538      0.91135  1.0000
  O2          0.66330      0.34282      0.74818  1.0000
  O3          0.60331      0.29535      0.08339  1.0000
  O2          0.65824      0.30956      0.41509  1.0000
  O2          0.36274      0.32374      0.96649  1.0000
  O2          0.64775      0.02809      0.30352  1.0000
  O2          0.93869      0.61286      0.63517  1.0000
  O2          0.60534      0.65521      0.46830  1.0000
  O2          0.31470      0.94299      0.80078  1.0000
  O3          0.01635      0.35658      0.13075  1.0000
  O2          0.30691      0.35648      0.36055  1.0000
  O2          0.02400      0.66036      0.02484  1.0000
  O2          0.61101      0.94521      0.69301  1.0000
  O2          0.65627      0.61505      0.85910  1.0000
  O2          0.93609      0.31585      0.52725  1.0000
  O2          0.34766      0.02155      0.19494  1.0000
  O3          0.75011      0.28272      0.00128  1.0000
  O2          0.67520      0.45156      0.34190  1.0000
  O2          0.51715      0.21716      0.67499  1.0000
  O2          0.20964      0.68221      0.50817  1.0000
  O2          0.28927      0.52042      0.83866  1.0000
  O2          0.44628      0.75586      0.17635  1.0000
  O2          0.27940      0.75225      0.32177  1.0000
  O2          0.45149      0.68910      0.98466  1.0000
  O2          0.21423      0.52073      0.65339  1.0000
  O2          0.68349      0.21738      0.82039  1.0000
  O2          0.51266      0.28940      0.48726  1.0000
  O2          0.73594      0.45373      0.14991  1.0000
  O3          0.76621      0.54344      0.01926  1.0000
  O2          0.44323      0.23360      0.35971  1.0000
  O2          0.73617      0.20448      0.69264  1.0000
  O2          0.19581      0.45062      0.52556  1.0000
  O2          0.52081      0.73934      0.85672  1.0000
  O2          0.22151      0.76175      0.19301  1.0000
  O2          0.51293      0.77033      0.30491  1.0000
  O2          0.23424      0.45518      0.96777  1.0000
  O2          0.19813      0.73665      0.63624  1.0000
  O2          0.45103      0.20194      0.80283  1.0000
  O2          0.72975      0.52104      0.47008  1.0000
  O2          0.76244      0.24502      0.13392  1.0000
  O2          0.21677      0.31371      0.89392  1.0000
  O2          0.65558      0.89467      0.23093  1.0000
  O2          0.07261      0.75442      0.56253  1.0000
  O2          0.74761      0.66140      0.39588  1.0000
  O2          0.30706      0.07791      0.72851  1.0000
  O2          0.87986      0.21991      0.05960  1.0000
  O2          0.30111      0.21697      0.43354  1.0000
  O2          0.88270      0.66053      0.09635  1.0000
  O2          0.75427      0.07986      0.76626  1.0000
  O2          0.66265      0.75851      0.93131  1.0000
  O2          0.07361      0.31016      0.59978  1.0000
  O2          0.20583      0.88707      0.26736  1.0000
  O2          0.57171      0.55176      0.98764  1.0000
  O2          0.41795      0.01000      0.32301  1.0000
  O2          0.95532      0.40052      0.65517  1.0000
  O2          0.39222      0.42696      0.48876  1.0000
  O2          0.54398      0.95895      0.82092  1.0000
  O3          0.99011      0.57162      0.15418  1.0000
  O2          0.53593      0.57125      0.34066  1.0000
  O2          0.00537      0.43107      0.00723  1.0000
  O2          0.39563      0.95825      0.67276  1.0000
  O2          0.42834      0.39974      0.84009  1.0000
  O2          0.95002      0.54438      0.50736  1.0000
  O2          0.56688      0.01472      0.17573  1.0000
  O2          0.55731      0.14675      0.25013  1.0000
  O2          0.81529      0.40311      0.58164  1.0000
  O2          0.57349      0.41225      0.91453  1.0000
  O2          0.40131      0.82202      0.74654  1.0000
  O3          0.14485      0.57962      0.07729  1.0000
  O2          0.39402      0.56559      0.41491  1.0000
  F           0.42464      0.88256      0.24762  1.0000
  F           0.07803      0.53441      0.58035  1.0000
  F           0.43471      0.54145      0.91194  1.0000
  F           0.53307      0.08357      0.74667  1.0000
  F           0.84572      0.43028      0.07105  1.0000
  F           0.52630      0.43651      0.41387  1.0000
