data_cif

_audit_creation_method             'generated by GULP'

_symmetry_space_group_name_H-M     'P 1'
_symmetry_Int_Tables_number        1
_symmetry_cell_setting             triclinic

_cell_length_a                       11.9300
_cell_length_b                       11.9864
_cell_length_c                       29.4567
_cell_angle_alpha                   90.4320
_cell_angle_beta                    90.2011
_cell_angle_gamma                  119.8806

loop_
_atom_site_label
_atom_site_fract_x
_atom_site_fract_y
_atom_site_fract_z
_atom_site_occupancy
  Ge          0.69960      0.37570      0.03389  1.0000
  Si          0.59677      0.30691      0.36561  1.0000
  Si          0.65827      0.27818      0.69768  1.0000
  Si          0.28230      0.60003      0.52962  1.0000
  Si          0.36259      0.66037      0.86266  1.0000
  Si          0.30126      0.69362      0.19435  1.0000
  Si          0.35297      0.68376      0.29468  1.0000
  Si          0.30847      0.60871      0.96268  1.0000
  Si          0.27890      0.65432      0.63138  1.0000
  Si          0.60516      0.28011      0.79848  1.0000
  Si          0.65505      0.36231      0.46785  1.0000
  Si          0.66973      0.30813      0.13206  1.0000
  Si          0.51999      0.40683      0.96644  1.0000
  Si          0.55791      0.09431      0.30072  1.0000
  Si          0.86754      0.44877      0.63263  1.0000
  Ge          0.44778      0.54966      0.46138  1.0000
  Si          0.40085      0.86952      0.79812  1.0000
  Si          0.09090      0.52001      0.12848  1.0000
  Si          0.38227      0.51311      0.36200  1.0000
  Si          0.09327      0.57207      0.02548  1.0000
  Si          0.45162      0.86702      0.69639  1.0000
  Si          0.56882      0.45466      0.86374  1.0000
  Si          0.86961      0.39853      0.53136  1.0000
  Si          0.50816      0.10187      0.19951  1.0000
  Si          0.28673      0.38320      0.84855  1.0000
  Si          0.58050      0.89461      0.18214  1.0000
  Si          0.07753      0.67660      0.51686  1.0000
  Si          0.67079      0.58620      0.34987  1.0000
  Si          0.37988      0.07595      0.68248  1.0000
  Si          0.88064      0.28459      0.01025  1.0000
  Si          0.37040      0.27876      0.48473  1.0000
  Si          0.87686      0.59235      0.14261  1.0000
  Si          0.68206      0.07867      0.81301  1.0000
  Si          0.58699      0.68795      0.97842  1.0000
  Si          0.07744      0.37725      0.64618  1.0000
  Si          0.27717      0.88537      0.31232  1.0000
  Si          0.23965      0.32968      0.94908  1.0000
  Si          0.63530      0.89388      0.28300  1.0000
  Si          0.06820      0.72608      0.61748  1.0000
  Si          0.72799      0.64824      0.45223  1.0000
  Si          0.32391      0.07090      0.78309  1.0000
  Si          0.88624      0.23899      0.11357  1.0000
  Si          0.31001      0.23460      0.38145  1.0000
  Si          0.89251      0.65714      0.04023  1.0000
  Si          0.73032      0.06946      0.71227  1.0000
  Si          0.64439      0.73336      0.87768  1.0000
  Si          0.07006      0.31974      0.54516  1.0000
  Si          0.22819      0.90057      0.21191  1.0000
  Si          0.96189      0.11054      0.96292  1.0000
  Si          0.85314      0.83090      0.29876  1.0000
  Si          0.12890      0.00505      0.63287  1.0000
  Si          0.01332      0.85768      0.46586  1.0000
  Si          0.10608      0.13356      0.79808  1.0000
  Si          0.82848      0.96274      0.13150  1.0000
  Si          0.09795      0.95161      0.36462  1.0000
  Si          0.83536      0.87495      0.02987  1.0000
  Si          0.01032      0.13115      0.69723  1.0000
  Si          0.86355      0.01072      0.86293  1.0000
  Si          0.12658      0.09611      0.53250  1.0000
  Si          0.94763      0.83903      0.19689  1.0000
  O2          0.91580      0.99881      0.99953  1.0000
  O2          0.97390      0.90953      0.33239  1.0000
  O2          0.05034      0.04744      0.66582  1.0000
  O2          0.04809      0.97727      0.49855  1.0000
  O2          0.98467      0.05325      0.83033  1.0000
  O2          0.90671      0.92337      0.16634  1.0000
  O2          0.31156      0.55558      0.32393  1.0000
  O2          0.40296      0.74087      0.66405  1.0000
  O2          0.22081      0.64659      0.99482  1.0000
  O2          0.64425      0.40340      0.83148  1.0000
  O2          0.56030      0.23090      0.16998  1.0000
  O2          0.74195      0.32364      0.49859  1.0000
  O3          0.56361      0.33194      0.99872  1.0000
  O2          0.74236      0.40029      0.66512  1.0000
  O2          0.63330      0.21940      0.33391  1.0000
  O3          0.39945      0.63709      0.49735  1.0000
  O2          0.21688      0.57148      0.16081  1.0000
  O2          0.32377      0.74445      0.82997  1.0000
  O2          0.11570      0.20108      0.96890  1.0000
  O2          0.76194      0.89438      0.30344  1.0000
  O2          0.06787      0.85181      0.63824  1.0000
  O2          0.86068      0.76721      0.47073  1.0000
  O2          0.19733      0.07049      0.80324  1.0000
  O2          0.88984      0.11696      0.13537  1.0000
  O2          0.18832      0.10577      0.36009  1.0000
  O2          0.90905      0.79385      0.02456  1.0000
  O2          0.85599      0.06879      0.69178  1.0000
  O2          0.77130      0.85714      0.85722  1.0000
  O2          0.06953      0.19203      0.52560  1.0000
  O2          0.10232      0.90316      0.19224  1.0000
  O2          0.90591      0.84221      0.24823  1.0000
  O2          0.10873      0.04233      0.58274  1.0000
  O2          0.91978      0.04714      0.91359  1.0000
  O2          0.05130      0.12081      0.74782  1.0000
  O2          0.84254      0.92079      0.08157  1.0000
  O2          0.05104      0.91083      0.41526  1.0000
  O2          0.89387      0.19513      0.97208  1.0000
  O2          0.76819      0.68001      0.31110  1.0000
  O2          0.28187      0.07619      0.64393  1.0000
  O2          0.08318      0.77644      0.47824  1.0000
  O2          0.18820      0.28492      0.81023  1.0000
  O2          0.67674      0.89441      0.14348  1.0000
  O2          0.17867      0.88183      0.35069  1.0000
  O2          0.68453      0.78948      0.01666  1.0000
  O2          0.08079      0.28133      0.68416  1.0000
  O2          0.78108      0.08074      0.85167  1.0000
  O2          0.27875      0.16888      0.52057  1.0000
  O2          0.87939      0.68998      0.18157  1.0000
  O2          0.29845      0.63218      0.24359  1.0000
  O2          0.33378      0.65215      0.58135  1.0000
  O2          0.30417      0.66329      0.91254  1.0000
  O2          0.66012      0.33628      0.74814  1.0000
  O3          0.60528      0.30034      0.08439  1.0000
  O2          0.65298      0.31283      0.41599  1.0000
  O2          0.36219      0.32134      0.96726  1.0000
  O2          0.64492      0.02488      0.30319  1.0000
  O2          0.93619      0.60479      0.63614  1.0000
  O3          0.61496      0.66710      0.47073  1.0000
  O2          0.31366      0.93890      0.80128  1.0000
  O2          0.01803      0.36478      0.13094  1.0000
  O2          0.29933      0.35479      0.36179  1.0000
  O2          0.02526      0.66002      0.02493  1.0000
  O2          0.60826      0.93674      0.69359  1.0000
  O2          0.65418      0.61042      0.85981  1.0000
  O2          0.93533      0.30821      0.52710  1.0000
  O2          0.35155      0.03335      0.19514  1.0000
  O3          0.74741      0.27823      0.00194  1.0000
  O2          0.66696      0.44972      0.34422  1.0000
  O2          0.51414      0.20931      0.67511  1.0000
  O2          0.21006      0.67509      0.50969  1.0000
  O2          0.28771      0.51708      0.83988  1.0000
  O2          0.44504      0.76300      0.17271  1.0000
  O2          0.27848      0.75186      0.31801  1.0000
  O2          0.45185      0.68797      0.98569  1.0000
  O2          0.21037      0.51221      0.65394  1.0000
  O2          0.68111      0.21219      0.82063  1.0000
  O2          0.50966      0.28457      0.48737  1.0000
  O2          0.74585      0.45774      0.15085  1.0000
  O3          0.76772      0.54314      0.01817  1.0000
  O2          0.44186      0.24276      0.36401  1.0000
  O2          0.73199      0.19573      0.69292  1.0000
  O2          0.19331      0.44349      0.52469  1.0000
  O2          0.51915      0.73520      0.85785  1.0000
  O2          0.22599      0.77487      0.19053  1.0000
  O2          0.50946      0.76574      0.30062  1.0000
  O2          0.23395      0.45327      0.96895  1.0000
  O2          0.19586      0.72755      0.63629  1.0000
  O2          0.44892      0.19785      0.80301  1.0000
  O2          0.71834      0.51626      0.47087  1.0000
  O2          0.76257      0.24333      0.13280  1.0000
  O2          0.21595      0.31109      0.89483  1.0000
  O2          0.65384      0.89546      0.22865  1.0000
  O2          0.06938      0.74593      0.56319  1.0000
  O2          0.73876      0.65613      0.39695  1.0000
  O2          0.30530      0.07221      0.72875  1.0000
  O2          0.88582      0.22312      0.05930  1.0000
  O2          0.29736      0.22087      0.43562  1.0000
  O2          0.88015      0.66071      0.09560  1.0000
  O2          0.75142      0.07271      0.76663  1.0000
  O2          0.66207      0.75550      0.93207  1.0000
  O2          0.07373      0.30354      0.59946  1.0000
  O2          0.20788      0.89395      0.26617  1.0000
  O2          0.57159      0.54985      0.98843  1.0000
  O2          0.41616      0.01069      0.32302  1.0000
  O2          0.95110      0.39017      0.65539  1.0000
  O3          0.37779      0.40983      0.49720  1.0000
  O2          0.54261      0.95382      0.82156  1.0000
  O2          0.00048      0.57307      0.14854  1.0000
  O2          0.52854      0.56599      0.34236  1.0000
  O2          0.00125      0.43038      0.00456  1.0000
  O2          0.39373      0.95053      0.67335  1.0000
  O2          0.42634      0.39610      0.84087  1.0000
  O2          0.94981      0.53819      0.50724  1.0000
  O2          0.56782      0.02121      0.17513  1.0000
  O2          0.55954      0.15143      0.25088  1.0000
  O2          0.81195      0.39580      0.58160  1.0000
  O2          0.57181      0.40860      0.91495  1.0000
  O2          0.39989      0.81562      0.74720  1.0000
  O2          0.13722      0.56647      0.07737  1.0000
  O3          0.37529      0.56944      0.40990  1.0000
  F           0.42882      0.89156      0.24714  1.0000
  F           0.06766      0.52243      0.58120  1.0000
  F           0.43327      0.53862      0.91359  1.0000
  F           0.53031      0.07701      0.74764  1.0000
  F           0.84535      0.42996      0.07037  1.0000
  F           0.50216      0.45770      0.42433  1.0000
