data_cif

_audit_creation_method             'generated by GULP'

_symmetry_space_group_name_H-M     'P 1'
_symmetry_Int_Tables_number        1
_symmetry_cell_setting             triclinic

_cell_length_a                       11.9753
_cell_length_b                       12.0016
_cell_length_c                       29.4481
_cell_angle_alpha                   89.9429
_cell_angle_beta                    90.1369
_cell_angle_gamma                  120.3856

loop_
_atom_site_label
_atom_site_fract_x
_atom_site_fract_y
_atom_site_fract_z
_atom_site_occupancy
  Ge          0.69960      0.37570      0.03389  1.0000
  Si          0.59109      0.30080      0.36534  1.0000
  Si          0.65247      0.27767      0.69866  1.0000
  Si          0.26352      0.59784      0.52737  1.0000
  Si          0.36109      0.67164      0.86239  1.0000
  Si          0.29552      0.68768      0.19738  1.0000
  Si          0.34681      0.67903      0.29768  1.0000
  Si          0.30998      0.61325      0.96378  1.0000
  Si          0.27157      0.65689      0.62794  1.0000
  Si          0.60256      0.28459      0.80096  1.0000
  Si          0.64360      0.35832      0.46592  1.0000
  Si          0.66568      0.30377      0.13212  1.0000
  Si          0.52195      0.41046      0.96645  1.0000
  Si          0.55398      0.08880      0.30208  1.0000
  Si          0.86097      0.44869      0.63199  1.0000
  Si          0.43594      0.56011      0.46295  1.0000
  Ge          0.41050      0.88891      0.79542  1.0000
  Si          0.08744      0.51805      0.13028  1.0000
  Si          0.38500      0.50510      0.36133  1.0000
  Si          0.09450      0.57471      0.02718  1.0000
  Si          0.44231      0.85701      0.69611  1.0000
  Si          0.56714      0.46297      0.86401  1.0000
  Si          0.85376      0.39386      0.53061  1.0000
  Si          0.50440      0.09591      0.20053  1.0000
  Si          0.28699      0.39282      0.84930  1.0000
  Si          0.57587      0.88861      0.18393  1.0000
  Si          0.06209      0.67473      0.51494  1.0000
  Si          0.66670      0.57731      0.34869  1.0000
  Si          0.36990      0.07112      0.68371  1.0000
  Si          0.88124      0.28623      0.01099  1.0000
  Si          0.36427      0.28053      0.47890  1.0000
  Si          0.87342      0.58902      0.14336  1.0000
  Si          0.68444      0.08381      0.81891  1.0000
  Si          0.58824      0.69087      0.97840  1.0000
  Si          0.07020      0.37818      0.64461  1.0000
  Si          0.27097      0.87916      0.31458  1.0000
  Si          0.24270      0.33468      0.94968  1.0000
  Si          0.63021      0.88840      0.28486  1.0000
  Si          0.06119      0.72817      0.61574  1.0000
  Si          0.71551      0.63827      0.44936  1.0000
  Si          0.31325      0.07003      0.78606  1.0000
  Si          0.88215      0.23621      0.11426  1.0000
  Si          0.30892      0.22765      0.37812  1.0000
  Si          0.89352      0.65830      0.04101  1.0000
  Si          0.72362      0.06435      0.71559  1.0000
  Si          0.64268      0.74083      0.87748  1.0000
  Si          0.05490      0.31631      0.54399  1.0000
  Si          0.22313      0.89421      0.21391  1.0000
  Si          0.96511      0.11446      0.96473  1.0000
  Si          0.84735      0.82525      0.29840  1.0000
  Si          0.12278      0.00782      0.63219  1.0000
  Si          0.99583      0.85656      0.46515  1.0000
  Si          0.10522      0.14643      0.79846  1.0000
  Si          0.82441      0.95911      0.13251  1.0000
  Si          0.09089      0.94695      0.36413  1.0000
  Si          0.83562      0.87548      0.03096  1.0000
  Si          0.00589      0.13348      0.69735  1.0000
  Si          0.86781      0.02005      0.86516  1.0000
  Si          0.11773      0.09953      0.53090  1.0000
  Si          0.94408      0.83537      0.19706  1.0000
  O2          0.91919      0.00298      0.00186  1.0000
  O2          0.96943      0.90367      0.33118  1.0000
  O2          0.04399      0.04885      0.66553  1.0000
  O2          0.03774      0.97547      0.49914  1.0000
  O2          0.98503      0.06208      0.83080  1.0000
  O2          0.90624      0.92136      0.16606  1.0000
  O2          0.30779      0.55271      0.32872  1.0000
  O2          0.39996      0.74413      0.65804  1.0000
  O2          0.22324      0.64982      0.99664  1.0000
  O2          0.64140      0.41062      0.83137  1.0000
  O2          0.55592      0.22472      0.17022  1.0000
  O2          0.72562      0.31809      0.49910  1.0000
  O3          0.56545      0.33412      0.99817  1.0000
  O2          0.73677      0.39857      0.66541  1.0000
  O2          0.63082      0.21397      0.33471  1.0000
  O2          0.38551      0.63697      0.49413  1.0000
  O2          0.21070      0.56644      0.16358  1.0000
  O3          0.32296      0.75251      0.83092  1.0000
  O2          0.11878      0.20562      0.97037  1.0000
  O2          0.75605      0.88730      0.30479  1.0000
  O2          0.05968      0.85312      0.63611  1.0000
  O2          0.84082      0.76630      0.46960  1.0000
  O2          0.19581      0.08528      0.80446  1.0000
  O2          0.88468      0.11345      0.13610  1.0000
  O2          0.18325      0.10076      0.35757  1.0000
  O2          0.90995      0.79570      0.02573  1.0000
  O2          0.85078      0.06976      0.69401  1.0000
  O2          0.76995      0.86780      0.85735  1.0000
  O2          0.05244      0.18816      0.52482  1.0000
  O2          0.09895      0.89802      0.19368  1.0000
  O2          0.89931      0.84014      0.24768  1.0000
  O2          0.10999      0.05096      0.58199  1.0000
  O2          0.92439      0.04905      0.91568  1.0000
  O2          0.05190      0.12978      0.74762  1.0000
  O2          0.83690      0.91695      0.08267  1.0000
  O2          0.03835      0.91244      0.41498  1.0000
  O2          0.89652      0.19827      0.97299  1.0000
  O2          0.76529      0.67308      0.31004  1.0000
  O2          0.27461      0.07438      0.64493  1.0000
  O2          0.06278      0.77227      0.47659  1.0000
  O2          0.18665      0.29778      0.81037  1.0000
  O2          0.67280      0.88853      0.14558  1.0000
  O2          0.17205      0.87610      0.35302  1.0000
  O2          0.68602      0.79143      0.01650  1.0000
  O2          0.07516      0.28312      0.68259  1.0000
  O2          0.79572      0.10079      0.85483  1.0000
  O2          0.26871      0.18340      0.51778  1.0000
  O2          0.87477      0.68586      0.18207  1.0000
  O2          0.29185      0.62481      0.24685  1.0000
  O2          0.32400      0.65464      0.57723  1.0000
  O2          0.30809      0.66964      0.91398  1.0000
  O2          0.65122      0.33060      0.74899  1.0000
  O3          0.60295      0.29729      0.08425  1.0000
  O2          0.64648      0.30198      0.41595  1.0000
  O2          0.36387      0.32484      0.96792  1.0000
  O2          0.64101      0.01994      0.30432  1.0000
  O2          0.93008      0.60488      0.63524  1.0000
  O2          0.59256      0.64835      0.46669  1.0000
  O3          0.29435      0.93924      0.80521  1.0000
  O2          0.01363      0.36213      0.13191  1.0000
  O2          0.29815      0.34845      0.35879  1.0000
  O2          0.02696      0.66251      0.02610  1.0000
  O2          0.60146      0.93294      0.69632  1.0000
  O2          0.65467      0.61919      0.85936  1.0000
  O2          0.92066      0.30518      0.52689  1.0000
  O2          0.34776      0.02666      0.19647  1.0000
  O3          0.74867      0.27991      0.00200  1.0000
  O2          0.66653      0.44322      0.34209  1.0000
  O2          0.50720      0.20392      0.67808  1.0000
  O2          0.19481      0.67338      0.50618  1.0000
  O2          0.28690      0.52529      0.84151  1.0000
  O2          0.43922      0.75675      0.17512  1.0000
  O2          0.27010      0.74441      0.32064  1.0000
  O2          0.45343      0.68955      0.98660  1.0000
  O2          0.20345      0.51440      0.65116  1.0000
  O2          0.68049      0.21768      0.82109  1.0000
  O2          0.49907      0.28311      0.48749  1.0000
  O2          0.74140      0.45331      0.15102  1.0000
  O3          0.76951      0.54446      0.01846  1.0000
  O2          0.43473      0.22612      0.35954  1.0000
  O2          0.71606      0.18738      0.69766  1.0000
  O2          0.17935      0.44144      0.52285  1.0000
  O2          0.51846      0.74124      0.85721  1.0000
  O2          0.21940      0.76748      0.19340  1.0000
  O2          0.50322      0.76115      0.30356  1.0000
  O2          0.23612      0.45716      0.96939  1.0000
  O2          0.19012      0.73119      0.63361  1.0000
  O2          0.44776      0.19362      0.80382  1.0000
  O2          0.71713      0.51464      0.47019  1.0000
  O2          0.75786      0.23912      0.13308  1.0000
  O2          0.21712      0.31559      0.89546  1.0000
  O2          0.64814      0.88917      0.23051  1.0000
  O2          0.05949      0.74561      0.56139  1.0000
  O2          0.73655      0.65392      0.39502  1.0000
  O2          0.30140      0.06915      0.73076  1.0000
  O2          0.88335      0.22213      0.05998  1.0000
  O2          0.28997      0.20890      0.43249  1.0000
  O2          0.87950      0.65944      0.09632  1.0000
  O2          0.74031      0.06784      0.76980  1.0000
  O2          0.66166      0.76159      0.93184  1.0000
  O2          0.06252      0.30251      0.59823  1.0000
  O2          0.20275      0.88843      0.26828  1.0000
  O2          0.57543      0.55354      0.98839  1.0000
  O2          0.41190      0.00257      0.32471  1.0000
  O2          0.94356      0.38946      0.65450  1.0000
  O2          0.37747      0.41962      0.48684  1.0000
  O3          0.55226      0.96079      0.83150  1.0000
  O2          0.99622      0.56970      0.14988  1.0000
  O2          0.52714      0.56224      0.33879  1.0000
  O2          0.00290      0.43307      0.00606  1.0000
  O2          0.38904      0.94946      0.67617  1.0000
  O2          0.42540      0.40333      0.84039  1.0000
  O2          0.93596      0.53456      0.50676  1.0000
  O2          0.56390      0.01540      0.17663  1.0000
  O2          0.55502      0.14476      0.25182  1.0000
  O2          0.80260      0.39417      0.58174  1.0000
  O2          0.57244      0.41297      0.91452  1.0000
  O3          0.38676      0.79510      0.74406  1.0000
  O2          0.13644      0.56806      0.07932  1.0000
  O2          0.38403      0.55897      0.41185  1.0000
  F           0.42165      0.88235      0.24899  1.0000
  F           0.06274      0.52475      0.57983  1.0000
  F           0.43809      0.54010      0.91386  1.0000
  F           0.50206      0.03397      0.75814  1.0000
  F           0.84363      0.42885      0.07087  1.0000
  F           0.51553      0.42978      0.41376  1.0000
