data_cif

_audit_creation_method             'generated by GULP'

_symmetry_space_group_name_H-M     'P 1'
_symmetry_Int_Tables_number        1
_symmetry_cell_setting             triclinic

_cell_length_a                       11.9566
_cell_length_b                       11.9674
_cell_length_c                       29.4058
_cell_angle_alpha                   90.5154
_cell_angle_beta                    89.6689
_cell_angle_gamma                  119.9715

loop_
_atom_site_label
_atom_site_fract_x
_atom_site_fract_y
_atom_site_fract_z
_atom_site_occupancy
  Ge          0.69960      0.37570      0.03389  1.0000
  Si          0.61767      0.30675      0.36530  1.0000
  Si          0.67021      0.28203      0.69744  1.0000
  Si          0.29364      0.60511      0.53251  1.0000
  Si          0.37452      0.66804      0.86591  1.0000
  Si          0.32587      0.68109      0.20040  1.0000
  Si          0.37734      0.68291      0.30105  1.0000
  Si          0.32257      0.61171      0.96666  1.0000
  Si          0.29066      0.66038      0.63334  1.0000
  Si          0.61665      0.28666      0.79821  1.0000
  Si          0.67275      0.36207      0.46596  1.0000
  Si          0.68538      0.30337      0.13625  1.0000
  Si          0.52753      0.40766      0.96442  1.0000
  Si          0.57745      0.09296      0.30095  1.0000
  Si          0.88068      0.45390      0.63250  1.0000
  Si          0.46658      0.56572      0.46765  1.0000
  Si          0.41173      0.87656      0.80075  1.0000
  Si          0.11534      0.51688      0.13651  1.0000
  Si          0.41436      0.51162      0.36589  1.0000
  Si          0.11507      0.57852      0.03371  1.0000
  Si          0.46261      0.87115      0.69880  1.0000
  Si          0.57913      0.46159      0.86258  1.0000
  Si          0.88306      0.40073      0.53066  1.0000
  Si          0.52032      0.08511      0.19960  1.0000
  Si          0.29764      0.39016      0.84901  1.0000
  Si          0.60191      0.88366      0.18529  1.0000
  Si          0.09234      0.68166      0.51696  1.0000
  Si          0.69604      0.58521      0.35044  1.0000
  Si          0.39135      0.08023      0.68376  1.0000
  Si          0.90169      0.29199      0.01748  1.0000
  Si          0.39482      0.28525      0.48131  1.0000
  Ge          0.89675      0.57574      0.14276  1.0000
  Si          0.69274      0.08592      0.81392  1.0000
  Si          0.60175      0.68889      0.98052  1.0000
  Si          0.08929      0.38246      0.64729  1.0000
  Si          0.29665      0.88211      0.31484  1.0000
  Si          0.24926      0.33185      0.94963  1.0000
  Si          0.65791      0.89326      0.28624  1.0000
  Si          0.08202      0.73229      0.61790  1.0000
  Si          0.74522      0.64280      0.45165  1.0000
  Si          0.33515      0.07785      0.78471  1.0000
  Si          0.90548      0.23625      0.11932  1.0000
  Si          0.33590      0.23289      0.38051  1.0000
  Si          0.91538      0.66478      0.04682  1.0000
  Si          0.74192      0.07323      0.71312  1.0000
  Si          0.65648      0.74007      0.87939  1.0000
  Si          0.08442      0.32372      0.54644  1.0000
  Si          0.24160      0.88241      0.21391  1.0000
  Si          0.97112      0.11495      0.96483  1.0000
  Si          0.87599      0.83232      0.29924  1.0000
  Si          0.14384      0.01225      0.63271  1.0000
  Si          0.02482      0.86104      0.46640  1.0000
  Si          0.11737      0.14090      0.79887  1.0000
  Si          0.85022      0.95745      0.13370  1.0000
  Si          0.11762      0.95272      0.36526  1.0000
  Si          0.85030      0.87435      0.03071  1.0000
  Si          0.02205      0.13546      0.69790  1.0000
  Si          0.87365      0.01979      0.86411  1.0000
  Si          0.14659      0.10545      0.53167  1.0000
  Si          0.96194      0.82536      0.19716  1.0000
  O2          0.92546      0.99695      0.99865  1.0000
  O2          0.99767      0.91138      0.33210  1.0000
  O2          0.06377      0.05486      0.66528  1.0000
  O2          0.06686      0.98333      0.49906  1.0000
  O2          0.99558      0.06199      0.83154  1.0000
  O2          0.93383      0.91906      0.16527  1.0000
  O2          0.33776      0.56053      0.33381  1.0000
  O2          0.41292      0.74447      0.66664  1.0000
  O2          0.23978      0.65031      0.00086  1.0000
  O2          0.65591      0.41261      0.82992  1.0000
  O2          0.56268      0.20750      0.16682  1.0000
  O2          0.75792      0.32357      0.49818  1.0000
  O3          0.57244      0.33076      0.99624  1.0000
  O2          0.75385      0.40410      0.66454  1.0000
  O2          0.65503      0.22033      0.33267  1.0000
  O2          0.41792      0.64319      0.50028  1.0000
  O2          0.24349      0.55771      0.16677  1.0000
  O2          0.33557      0.75304      0.83393  1.0000
  O2          0.12535      0.20331      0.96955  1.0000
  O2          0.78436      0.89481      0.30657  1.0000
  O2          0.08024      0.85818      0.63802  1.0000
  O2          0.87080      0.76944      0.47214  1.0000
  O2          0.20910      0.07884      0.80499  1.0000
  O2          0.90590      0.11138      0.13939  1.0000
  O2          0.20947      0.10688      0.36030  1.0000
  O2          0.92025      0.79022      0.02326  1.0000
  O2          0.86752      0.07122      0.69298  1.0000
  O2          0.78229      0.86558      0.85883  1.0000
  O2          0.08407      0.19700      0.52622  1.0000
  O2          0.11690      0.88053      0.19261  1.0000
  O2          0.92746      0.84779      0.24843  1.0000
  O2          0.13207      0.05257      0.58224  1.0000
  O2          0.92687      0.05926      0.91475  1.0000
  O2          0.06369      0.12424      0.74835  1.0000
  O2          0.86266      0.92550      0.08169  1.0000
  O2          0.06332      0.91336      0.41579  1.0000
  O2          0.90753      0.20250      0.97726  1.0000
  O2          0.79365      0.68061      0.31179  1.0000
  O2          0.29519      0.08098      0.64521  1.0000
  O2          0.09499      0.77955      0.47850  1.0000
  O2          0.19913      0.29336      0.81046  1.0000
  O2          0.69871      0.88312      0.14648  1.0000
  O2          0.19944      0.88228      0.35360  1.0000
  O2          0.69830      0.78763      0.01898  1.0000
  O2          0.09050      0.28658      0.68581  1.0000
  O2          0.79141      0.08925      0.85248  1.0000
  O2          0.29850      0.18731      0.51986  1.0000
  O3          0.88649      0.67905      0.18507  1.0000
  O2          0.32303      0.62328      0.25058  1.0000
  O2          0.34977      0.66162      0.58312  1.0000
  O2          0.31939      0.66896      0.91679  1.0000
  O2          0.67253      0.34165      0.74772  1.0000
  O3          0.63246      0.31123      0.08621  1.0000
  O2          0.67419      0.30551      0.41550  1.0000
  O2          0.37099      0.32163      0.96748  1.0000
  O2          0.66593      0.02531      0.30440  1.0000
  O2          0.94914      0.61012      0.63608  1.0000
  O2          0.62294      0.65316      0.47044  1.0000
  O2          0.32465      0.94603      0.80365  1.0000
  O2          0.03681      0.35990      0.13713  1.0000
  O2          0.32613      0.35547      0.36262  1.0000
  O2          0.04920      0.66822      0.03213  1.0000
  O2          0.61898      0.93971      0.69556  1.0000
  O2          0.66593      0.61784      0.86007  1.0000
  O2          0.95221      0.31342      0.52787  1.0000
  O2          0.36464      0.01511      0.19628  1.0000
  O3          0.76889      0.28900      0.01203  1.0000
  O2          0.69385      0.44972      0.34303  1.0000
  O2          0.52613      0.21293      0.67571  1.0000
  O2          0.22630      0.68060      0.51007  1.0000
  O2          0.29886      0.52510      0.84281  1.0000
  O2          0.46892      0.74860      0.17773  1.0000
  O2          0.30011      0.75024      0.32288  1.0000
  O2          0.46616      0.68626      0.98881  1.0000
  O2          0.22238      0.51716      0.65548  1.0000
  O2          0.69224      0.22004      0.82125  1.0000
  O2          0.52958      0.28649      0.48870  1.0000
  O3          0.74978      0.44113      0.16044  1.0000
  O3          0.79062      0.54021      0.02596  1.0000
  O2          0.46149      0.23235      0.36056  1.0000
  O2          0.74304      0.19858      0.69287  1.0000
  O2          0.21132      0.44907      0.52733  1.0000
  O2          0.53055      0.74152      0.86087  1.0000
  O2          0.24768      0.75865      0.19486  1.0000
  O2          0.53330      0.76653      0.30598  1.0000
  O2          0.24500      0.45520      0.97058  1.0000
  O2          0.20847      0.73458      0.63803  1.0000
  O2          0.46055      0.20538      0.80388  1.0000
  O2          0.74704      0.51817      0.47119  1.0000
  O2          0.77924      0.23984      0.13587  1.0000
  O2          0.22755      0.31499      0.89528  1.0000
  O2          0.67683      0.89070      0.23179  1.0000
  O2          0.08580      0.75152      0.56352  1.0000
  O2          0.76522      0.65945      0.39724  1.0000
  O2          0.31719      0.07775      0.73031  1.0000
  O2          0.90906      0.22748      0.06456  1.0000
  O2          0.31921      0.21419      0.43498  1.0000
  O3          0.90649      0.68498      0.09990  1.0000
  O2          0.76261      0.07882      0.76755  1.0000
  O2          0.67487      0.75874      0.93383  1.0000
  O2          0.08567      0.30698      0.60089  1.0000
  O2          0.22411      0.88196      0.26854  1.0000
  O2          0.58783      0.54933      0.98870  1.0000
  O2          0.43551      0.00872      0.32356  1.0000
  O2          0.96331      0.39604      0.65603  1.0000
  O2          0.40882      0.42471      0.49071  1.0000
  O2          0.55352      0.96101      0.82355  1.0000
  O3          0.03660      0.57581      0.16047  1.0000
  O2          0.55548      0.56927      0.34242  1.0000
  O2          0.01877      0.43796      0.01242  1.0000
  O2          0.40526      0.95439      0.67557  1.0000
  O2          0.43752      0.40515      0.83983  1.0000
  O2          0.96779      0.54178      0.50780  1.0000
  O2          0.58447      0.00689      0.17616  1.0000
  O2          0.57594      0.14298      0.24990  1.0000
  O2          0.82868      0.40099      0.58148  1.0000
  O2          0.58030      0.40892      0.91317  1.0000
  O2          0.41047      0.82064      0.75001  1.0000
  O2          0.16072      0.56972      0.08464  1.0000
  O2          0.41356      0.56520      0.41685  1.0000
  F           0.44960      0.88157      0.24978  1.0000
  F           0.09028      0.53174      0.58276  1.0000
  F           0.44755      0.53839      0.91568  1.0000
  F           0.54223      0.08271      0.74949  1.0000
  F           0.89050      0.46703      0.09128  1.0000
  F           0.54415      0.43418      0.41657  1.0000
