data_cif

_audit_creation_method             'generated by GULP'

_symmetry_space_group_name_H-M     'P 1'
_symmetry_Int_Tables_number        1
_symmetry_cell_setting             triclinic

_cell_length_a                       11.9631
_cell_length_b                       12.0130
_cell_length_c                       29.3598
_cell_angle_alpha                   90.5134
_cell_angle_beta                    90.5132
_cell_angle_gamma                  120.3064

loop_
_atom_site_label
_atom_site_fract_x
_atom_site_fract_y
_atom_site_fract_z
_atom_site_occupancy
  Ge          0.69960      0.37570      0.03389  1.0000
  Si          0.60660      0.32068      0.36440  1.0000
  Si          0.67567      0.31006      0.69779  1.0000
  Si          0.28398      0.62482      0.52750  1.0000
  Si          0.37950      0.69085      0.86147  1.0000
  Si          0.30707      0.70365      0.19448  1.0000
  Si          0.35967      0.69481      0.29513  1.0000
  Si          0.31026      0.63516      0.96341  1.0000
  Si          0.29395      0.68659      0.62847  1.0000
  Si          0.62255      0.30878      0.79887  1.0000
  Si          0.66196      0.38340      0.46529  1.0000
  Si          0.67372      0.31372      0.13238  1.0000
  Si          0.53162      0.42371      0.96943  1.0000
  Si          0.56735      0.10485      0.30172  1.0000
  Si          0.88339      0.48057      0.63266  1.0000
  Si          0.45269      0.58436      0.46162  1.0000
  Si          0.41853      0.89839      0.79571  1.0000
  Si          0.09503      0.53302      0.12693  1.0000
  Si          0.39950      0.52386      0.35950  1.0000
  Si          0.08667      0.58168      0.02400  1.0000
  Si          0.46897      0.89977      0.69365  1.0000
  Si          0.58938      0.48341      0.86563  1.0000
  Si          0.87435      0.42219      0.53062  1.0000
  Si          0.51416      0.10862      0.20007  1.0000
  Si          0.30361      0.40974      0.84764  1.0000
  Si          0.58783      0.90352      0.18143  1.0000
  Si          0.08222      0.70190      0.51460  1.0000
  Si          0.68128      0.59579      0.34699  1.0000
  Si          0.39673      0.10777      0.68065  1.0000
  Si          0.88169      0.28982      0.00947  1.0000
  Si          0.38274      0.30600      0.47739  1.0000
  Si          0.87818      0.60075      0.14103  1.0000
  Si          0.70058      0.10832      0.81181  1.0000
  Ge          0.58098      0.69533      0.97189  1.0000
  Si          0.09360      0.40991      0.64487  1.0000
  Si          0.28479      0.89548      0.31300  1.0000
  Si          0.24899      0.35201      0.94918  1.0000
  Si          0.64265      0.90422      0.28298  1.0000
  Si          0.08412      0.75827      0.61576  1.0000
  Si          0.73216      0.66155      0.44802  1.0000
  Si          0.34123      0.09874      0.78159  1.0000
  Si          0.89170      0.24893      0.11320  1.0000
  Si          0.32420      0.24733      0.37638  1.0000
  Si          0.88338      0.66199      0.03835  1.0000
  Si          0.74882      0.10236      0.71058  1.0000
  Si          0.66823      0.76670      0.87655  1.0000
  Si          0.07576      0.34445      0.54392  1.0000
  Si          0.23324      0.90883      0.21221  1.0000
  Si          0.97171      0.12431      0.96184  1.0000
  Si          0.85987      0.84129      0.29643  1.0000
  Si          0.14666      0.03851      0.62959  1.0000
  Si          0.01313      0.88019      0.46340  1.0000
  Si          0.12507      0.16164      0.79511  1.0000
  Si          0.83512      0.97346      0.12925  1.0000
  Si          0.10620      0.96543      0.36218  1.0000
  Si          0.83282      0.88601      0.02628  1.0000
  Si          0.02852      0.16359      0.69435  1.0000
  Si          0.88244      0.03946      0.85975  1.0000
  Si          0.13695      0.12646      0.52858  1.0000
  Si          0.95346      0.84979      0.19474  1.0000
  O2          0.93060      0.00999      0.99673  1.0000
  O2          0.98435      0.92138      0.32873  1.0000
  O2          0.06669      0.08236      0.66101  1.0000
  O2          0.05577      0.00383      0.49563  1.0000
  O2          0.00305      0.08499      0.82686  1.0000
  O2          0.91609      0.93407      0.16291  1.0000
  O2          0.32171      0.56975      0.32617  1.0000
  O2          0.42060      0.77462      0.66043  1.0000
  O2          0.20822      0.66054      0.99092  1.0000
  O2          0.66156      0.43015      0.83299  1.0000
  O2          0.56618      0.23797      0.17071  1.0000
  O2          0.74503      0.34527      0.49897  1.0000
  O3          0.56332      0.33295      0.99790  1.0000
  O2          0.76069      0.43395      0.66597  1.0000
  O2          0.64529      0.23111      0.33451  1.0000
  O2          0.40361      0.66184      0.49348  1.0000
  O2          0.22122      0.58368      0.15954  1.0000
  O2          0.34144      0.77230      0.82736  1.0000
  O2          0.12513      0.22367      0.96836  1.0000
  O2          0.76841      0.90297      0.30337  1.0000
  O2          0.08535      0.88518      0.63592  1.0000
  O2          0.85839      0.79028      0.46820  1.0000
  O2          0.21415      0.09721      0.80134  1.0000
  O2          0.89613      0.12794      0.13511  1.0000
  O2          0.19824      0.11895      0.35594  1.0000
  O2          0.89654      0.79486      0.02136  1.0000
  O2          0.87381      0.10186      0.68983  1.0000
  O2          0.78802      0.88685      0.85063  1.0000
  O2          0.07183      0.21564      0.52426  1.0000
  O2          0.10839      0.91209      0.19200  1.0000
  O2          0.90847      0.85542      0.24530  1.0000
  O2          0.12979      0.07349      0.57869  1.0000
  O2          0.93946      0.07023      0.91054  1.0000
  O2          0.07299      0.14994      0.74425  1.0000
  O2          0.84947      0.93643      0.07871  1.0000
  O2          0.05341      0.93065      0.41278  1.0000
  O2          0.89689      0.20166      0.97127  1.0000
  O2          0.77887      0.68977      0.30826  1.0000
  O2          0.29936      0.11002      0.64209  1.0000
  O2          0.08149      0.79803      0.47624  1.0000
  O2          0.21021      0.31363      0.80768  1.0000
  O2          0.68363      0.90359      0.14271  1.0000
  O2          0.18709      0.89395      0.35150  1.0000
  O3          0.68658      0.81467      0.01343  1.0000
  O2          0.09870      0.31523      0.68304  1.0000
  O2          0.80105      0.11139      0.85013  1.0000
  O2          0.28776      0.21065      0.51612  1.0000
  O2          0.88362      0.69977      0.17998  1.0000
  O2          0.30395      0.64053      0.24379  1.0000
  O2          0.34696      0.68444      0.57764  1.0000
  O2          0.31923      0.68792      0.91109  1.0000
  O2          0.67821      0.36689      0.74871  1.0000
  O3          0.60666      0.30202      0.08448  1.0000
  O2          0.66377      0.32485      0.41527  1.0000
  O2          0.37249      0.34558      0.96627  1.0000
  O2          0.65423      0.03570      0.30335  1.0000
  O2          0.95311      0.63694      0.63511  1.0000
  O2          0.60959      0.67261      0.46512  1.0000
  O2          0.33138      0.96696      0.79955  1.0000
  O2          0.02297      0.37766      0.12996  1.0000
  O2          0.31269      0.36727      0.35692  1.0000
  O2          0.01783      0.66720      0.02416  1.0000
  O2          0.62570      0.96975      0.69137  1.0000
  O2          0.67308      0.63869      0.86057  1.0000
  O2          0.94159      0.33388      0.52652  1.0000
  O2          0.35763      0.04076      0.19524  1.0000
  O3          0.74595      0.27803      0.00164  1.0000
  O2          0.68112      0.46143      0.34071  1.0000
  O2          0.53169      0.24215      0.67462  1.0000
  O2          0.21442      0.69926      0.50598  1.0000
  O2          0.30854      0.54508      0.84060  1.0000
  O2          0.45038      0.77181      0.17249  1.0000
  O2          0.28341      0.76058      0.31838  1.0000
  O3          0.44655      0.71355      0.98818  1.0000
  O2          0.22859      0.54503      0.65146  1.0000
  O2          0.69786      0.24024      0.82050  1.0000
  O2          0.51781      0.30905      0.48658  1.0000
  O2          0.74984      0.46428      0.15059  1.0000
  O3          0.76282      0.54105      0.01642  1.0000
  O2          0.45003      0.24553      0.35806  1.0000
  O2          0.74968      0.22874      0.69202  1.0000
  O2          0.20071      0.46838      0.52325  1.0000
  O2          0.53506      0.75957      0.85878  1.0000
  O2          0.22989      0.78248      0.19109  1.0000
  O2          0.51619      0.77714      0.30108  1.0000
  O2          0.24751      0.47876      0.96669  1.0000
  O2          0.21270      0.76082      0.63428  1.0000
  O2          0.46575      0.22651      0.80235  1.0000
  O2          0.73488      0.53959      0.46936  1.0000
  O2          0.76749      0.25089      0.13257  1.0000
  O2          0.23418      0.34202      0.89421  1.0000
  O2          0.66012      0.90463      0.22846  1.0000
  O2          0.08171      0.77430      0.56126  1.0000
  O2          0.75198      0.67428      0.39354  1.0000
  O2          0.32196      0.10086      0.72713  1.0000
  O2          0.89062      0.23157      0.05869  1.0000
  O2          0.30705      0.23172      0.43089  1.0000
  O2          0.87214      0.66456      0.09396  1.0000
  O2          0.77000      0.10515      0.76506  1.0000
  O3          0.69364      0.79695      0.92921  1.0000
  O2          0.08336      0.33157      0.59839  1.0000
  O2          0.21493      0.90438      0.26675  1.0000
  O3          0.58267      0.56122      0.99409  1.0000
  O2          0.42590      0.01841      0.32408  1.0000
  O2          0.96966      0.42507      0.65510  1.0000
  O2          0.39543      0.44491      0.48528  1.0000
  O2          0.56087      0.98153      0.81946  1.0000
  O2          0.00474      0.58654      0.14592  1.0000
  O2          0.54107      0.57995      0.33706  1.0000
  O2          0.99889      0.43806      0.00306  1.0000
  O2          0.41142      0.98345      0.67080  1.0000
  O2          0.44557      0.42863      0.84410  1.0000
  O2          0.95556      0.56168      0.50671  1.0000
  O2          0.57394      0.02932      0.17516  1.0000
  O2          0.56623      0.15911      0.25151  1.0000
  O2          0.82552      0.42421      0.58194  1.0000
  O2          0.58888      0.43900      0.91715  1.0000
  O2          0.41616      0.84579      0.74429  1.0000
  O2          0.13857      0.57797      0.07518  1.0000
  O2          0.39933      0.58026      0.41012  1.0000
  F           0.43315      0.89817      0.24719  1.0000
  F           0.08748      0.55488      0.57983  1.0000
  F           0.47729      0.58963      0.92317  1.0000
  F           0.54713      0.10725      0.74647  1.0000
  F           0.84682      0.43495      0.06975  1.0000
  F           0.53175      0.45118      0.41232  1.0000
