data_cif

_audit_creation_method             'generated by GULP'

_symmetry_space_group_name_H-M     'P 1'
_symmetry_Int_Tables_number        1
_symmetry_cell_setting             triclinic

_cell_length_a                       11.9271
_cell_length_b                       12.0348
_cell_length_c                       29.3594
_cell_angle_alpha                   90.2563
_cell_angle_beta                    89.7835
_cell_angle_gamma                  120.1927

loop_
_atom_site_label
_atom_site_fract_x
_atom_site_fract_y
_atom_site_fract_z
_atom_site_occupancy
  Ge          0.69960      0.37570      0.03389  1.0000
  Si          0.62174      0.31524      0.36525  1.0000
  Si          0.67012      0.28891      0.69744  1.0000
  Si          0.28472      0.60866      0.52743  1.0000
  Si          0.36795      0.66345      0.86027  1.0000
  Si          0.29729      0.68808      0.19645  1.0000
  Si          0.35288      0.67012      0.29834  1.0000
  Si          0.30964      0.61096      0.96084  1.0000
  Si          0.29212      0.66777      0.62827  1.0000
  Si          0.61234      0.28473      0.79845  1.0000
  Si          0.66881      0.37157      0.46600  1.0000
  Si          0.66897      0.30698      0.13254  1.0000
  Si          0.52214      0.40938      0.96643  1.0000
  Si          0.57130      0.09859      0.30524  1.0000
  Si          0.88202      0.46288      0.63302  1.0000
  Si          0.45410      0.56660      0.46126  1.0000
  Si          0.40726      0.87372      0.79547  1.0000
  Si          0.09069      0.52147      0.12800  1.0000
  Si          0.40681      0.50377      0.35972  1.0000
  Si          0.09377      0.57385      0.02450  1.0000
  Si          0.46349      0.87885      0.69335  1.0000
  Si          0.57496      0.45866      0.86338  1.0000
  Si          0.87795      0.40816      0.53120  1.0000
  Si          0.50896      0.10236      0.20247  1.0000
  Si          0.29313      0.38687      0.84699  1.0000
  Si          0.58151      0.89250      0.18325  1.0000
  Si          0.08437      0.68812      0.51433  1.0000
  Si          0.69203      0.58711      0.34760  1.0000
  Si          0.39196      0.08735      0.68058  1.0000
  Si          0.88111      0.28594      0.00927  1.0000
  Si          0.38637      0.28843      0.47716  1.0000
  Si          0.87559      0.59224      0.14210  1.0000
  Si          0.68850      0.08337      0.81133  1.0000
  Si          0.58771      0.68922      0.97701  1.0000
  Si          0.09185      0.39104      0.64523  1.0000
  Ge          0.29608      0.88139      0.30839  1.0000
  Si          0.24235      0.33317      0.94789  1.0000
  Si          0.64084      0.89018      0.28507  1.0000
  Si          0.08247      0.74044      0.61574  1.0000
  Si          0.73668      0.64879      0.44855  1.0000
  Si          0.33123      0.07526      0.78159  1.0000
  Si          0.88612      0.24005      0.11287  1.0000
  Si          0.33382      0.22832      0.37607  1.0000
  Si          0.89214      0.65779      0.03926  1.0000
  Si          0.74254      0.08108      0.71032  1.0000
  Si          0.64978      0.73649      0.87614  1.0000
  Si          0.07778      0.32827      0.54427  1.0000
  Si          0.22255      0.89897      0.21298  1.0000
  Si          0.96351      0.11345      0.96144  1.0000
  Si          0.86587      0.83501      0.29723  1.0000
  Si          0.14378      0.01939      0.62972  1.0000
  Si          0.01630      0.86740      0.46290  1.0000
  Si          0.11407      0.13833      0.79591  1.0000
  Si          0.82854      0.96438      0.12975  1.0000
  Si          0.11164      0.94806      0.36091  1.0000
  Si          0.83529      0.87564      0.02812  1.0000
  Si          0.02376      0.14330      0.69480  1.0000
  Si          0.86891      0.01478      0.86106  1.0000
  Si          0.13781      0.10957      0.52865  1.0000
  Si          0.94833      0.84032      0.19393  1.0000
  O2          0.91686      0.99880      0.99710  1.0000
  O2          0.98891      0.91804      0.32876  1.0000
  O2          0.06378      0.06284      0.66174  1.0000
  O2          0.05762      0.98906      0.49561  1.0000
  O2          0.99004      0.05789      0.82778  1.0000
  O2          0.90791      0.92370      0.16279  1.0000
  O2          0.32597      0.54215      0.32497  1.0000
  O2          0.41744      0.75530      0.66013  1.0000
  O2          0.22147      0.64845      0.99305  1.0000
  O2          0.65102      0.40657      0.83178  1.0000
  O2          0.56214      0.22989      0.17181  1.0000
  O2          0.74959      0.33206      0.49982  1.0000
  O3          0.56331      0.33357      0.99915  1.0000
  O2          0.75692      0.41444      0.66610  1.0000
  O2          0.66298      0.22843      0.33430  1.0000
  O2          0.40438      0.64424      0.49273  1.0000
  O2          0.21481      0.57049      0.16115  1.0000
  O2          0.32980      0.74677      0.82700  1.0000
  O2          0.11724      0.20475      0.96802  1.0000
  O2          0.76666      0.88895      0.30421  1.0000
  O2          0.08256      0.86625      0.63602  1.0000
  O2          0.86104      0.77663      0.46889  1.0000
  O2          0.20355      0.07390      0.80164  1.0000
  O2          0.88978      0.11800      0.13433  1.0000
  O2          0.21236      0.10172      0.35468  1.0000
  O2          0.90870      0.79446      0.02369  1.0000
  O2          0.86916      0.08195      0.68959  1.0000
  O2          0.77779      0.86109      0.85575  1.0000
  O2          0.07432      0.20032      0.52453  1.0000
  O2          0.10234      0.89986      0.18698  1.0000
  O2          0.91001      0.85167      0.24498  1.0000
  O2          0.12780      0.05533      0.57887  1.0000
  O2          0.92494      0.05309      0.91163  1.0000
  O2          0.06317      0.12730      0.74508  1.0000
  O2          0.83979      0.92385      0.07930  1.0000
  O2          0.05555      0.91909      0.41224  1.0000
  O2          0.89421      0.19632      0.97116  1.0000
  O2          0.78965      0.68340      0.30872  1.0000
  O2          0.29634      0.09044      0.64186  1.0000
  O2          0.08473      0.78494      0.47596  1.0000
  O2          0.19664      0.28909      0.80835  1.0000
  O2          0.67637      0.89554      0.14331  1.0000
  O3          0.18149      0.87091      0.35013  1.0000
  O2          0.68422      0.79013      0.01532  1.0000
  O2          0.09518      0.29503      0.68335  1.0000
  O2          0.78556      0.08328      0.85009  1.0000
  O2          0.28963      0.19287      0.51606  1.0000
  O2          0.87597      0.68965      0.18043  1.0000
  O2          0.29908      0.62873      0.24564  1.0000
  O2          0.34723      0.66717      0.57732  1.0000
  O2          0.30756      0.66539      0.91024  1.0000
  O2          0.66978      0.34374      0.74826  1.0000
  O3          0.60422      0.29904      0.08493  1.0000
  O2          0.67610      0.31637      0.41598  1.0000
  O2          0.36372      0.32429      0.96667  1.0000
  O2          0.65209      0.02213      0.30322  1.0000
  O2          0.95093      0.61867      0.63538  1.0000
  O2          0.61083      0.65594      0.46512  1.0000
  O2          0.31971      0.94230      0.79914  1.0000
  O2          0.01706      0.36634      0.13029  1.0000
  O2          0.32171      0.34857      0.35732  1.0000
  O2          0.02582      0.66129      0.02399  1.0000
  O2          0.62073      0.94927      0.69109  1.0000
  O2          0.66068      0.61432      0.85870  1.0000
  O2          0.94440      0.31913      0.52701  1.0000
  O2          0.35270      0.03144      0.19773  1.0000
  O3          0.74741      0.27907      0.00149  1.0000
  O2          0.69715      0.45590      0.34122  1.0000
  O2          0.52712      0.22154      0.67421  1.0000
  O2          0.21704      0.68475      0.50589  1.0000
  O2          0.29437      0.52028      0.83782  1.0000
  O2          0.44353      0.76310      0.17604  1.0000
  O3          0.27612      0.72861      0.32313  1.0000
  O2          0.45270      0.68988      0.98397  1.0000
  O2          0.22662      0.52591      0.65139  1.0000
  O2          0.68708      0.21565      0.82018  1.0000
  O2          0.52294      0.29509      0.48678  1.0000
  O2          0.74535      0.45637      0.15083  1.0000
  O3          0.76798      0.54298      0.01734  1.0000
  O2          0.46554      0.23633      0.35795  1.0000
  O2          0.74485      0.20807      0.69166  1.0000
  O2          0.20308      0.45275      0.52343  1.0000
  O2          0.52516      0.73829      0.85585  1.0000
  O2          0.22761      0.77325      0.19438  1.0000
  O2          0.51028      0.76518      0.30174  1.0000
  O2          0.23508      0.45574      0.96729  1.0000
  O2          0.21043      0.74183      0.63406  1.0000
  O2          0.45539      0.20101      0.80251  1.0000
  O2          0.73969      0.52697      0.46991  1.0000
  O2          0.76081      0.24143      0.13237  1.0000
  O2          0.22017      0.31449      0.89346  1.0000
  O2          0.64976      0.89056      0.23006  1.0000
  O2          0.08195      0.75804      0.56124  1.0000
  O2          0.75951      0.66476      0.39402  1.0000
  O2          0.31518      0.07983      0.72710  1.0000
  O2          0.88657      0.22487      0.05845  1.0000
  O2          0.31581      0.21323      0.43074  1.0000
  O2          0.87823      0.65958      0.09470  1.0000
  O2          0.76116      0.08153      0.76486  1.0000
  O2          0.66563      0.75781      0.93068  1.0000
  O2          0.08340      0.31421      0.59877  1.0000
  O3          0.19350      0.89263      0.26555  1.0000
  O2          0.57223      0.55191      0.98800  1.0000
  O3          0.43579      0.01834      0.33054  1.0000
  O2          0.96767      0.40689      0.65552  1.0000
  O2          0.39609      0.42596      0.48419  1.0000
  O2          0.54850      0.95714      0.81921  1.0000
  O2          0.00054      0.57496      0.14778  1.0000
  O2          0.55031      0.56743      0.33699  1.0000
  O2          0.00186      0.43238      0.00362  1.0000
  O2          0.40671      0.96332      0.67074  1.0000
  O2          0.43330      0.40001      0.83995  1.0000
  O2          0.95881      0.54773      0.50691  1.0000
  O2          0.56340      0.01549      0.17999  1.0000
  O2          0.55859      0.14532      0.25395  1.0000
  O2          0.82627      0.40837      0.58242  1.0000
  O2          0.57645      0.41273      0.91490  1.0000
  O2          0.40836      0.82366      0.74402  1.0000
  O2          0.13827      0.56850      0.07653  1.0000
  O2          0.40311      0.56215      0.40952  1.0000
  F           0.40218      0.88683      0.25942  1.0000
  F           0.08793      0.53795      0.57986  1.0000
  F           0.43777      0.54160      0.91231  1.0000
  F           0.54018      0.08518      0.74609  1.0000
  F           0.84497      0.43014      0.06994  1.0000
  F           0.54157      0.43905      0.41156  1.0000
