data_cif

_audit_creation_method             'generated by GULP'

_symmetry_space_group_name_H-M     'P 1'
_symmetry_Int_Tables_number        1
_symmetry_cell_setting             triclinic

_cell_length_a                       11.9417
_cell_length_b                       11.9997
_cell_length_c                       29.3621
_cell_angle_alpha                   89.5618
_cell_angle_beta                    90.7400
_cell_angle_gamma                  120.0175

loop_
_atom_site_label
_atom_site_fract_x
_atom_site_fract_y
_atom_site_fract_z
_atom_site_occupancy
  Ge          0.69960      0.37570      0.03389  1.0000
  Si          0.60096      0.30019      0.36567  1.0000
  Si          0.65449      0.29306      0.69870  1.0000
  Si          0.27887      0.59869      0.52984  1.0000
  Si          0.36285      0.66428      0.86069  1.0000
  Si          0.30292      0.68919      0.19560  1.0000
  Si          0.35557      0.67798      0.29638  1.0000
  Si          0.30704      0.61202      0.96111  1.0000
  Si          0.29539      0.66967      0.63196  1.0000
  Si          0.60310      0.28727      0.79957  1.0000
  Si          0.65438      0.35840      0.46653  1.0000
  Si          0.67165      0.30541      0.13244  1.0000
  Si          0.51836      0.40977      0.96724  1.0000
  Si          0.56265      0.08839      0.30232  1.0000
  Si          0.86668      0.45682      0.63663  1.0000
  Si          0.44499      0.55844      0.46296  1.0000
  Si          0.40391      0.87684      0.79567  1.0000
  Si          0.09364      0.51929      0.12815  1.0000
  Si          0.39382      0.50362      0.36087  1.0000
  Si          0.09337      0.57376      0.02471  1.0000
  Si          0.46258      0.88990      0.69413  1.0000
  Si          0.56774      0.46018      0.86438  1.0000
  Si          0.86320      0.39337      0.53366  1.0000
  Si          0.51100      0.09719      0.20047  1.0000
  Si          0.28558      0.38668      0.84716  1.0000
  Si          0.58267      0.89043      0.18283  1.0000
  Si          0.07452      0.67732      0.51626  1.0000
  Si          0.67576      0.57608      0.34810  1.0000
  Si          0.37952      0.09030      0.68165  1.0000
  Si          0.88030      0.28605      0.00961  1.0000
  Si          0.37435      0.27911      0.47886  1.0000
  Si          0.87878      0.58977      0.14208  1.0000
  Si          0.68499      0.08847      0.81154  1.0000
  Si          0.58513      0.69043      0.97783  1.0000
  Ge          0.08437      0.40012      0.64098  1.0000
  Si          0.28086      0.87876      0.31368  1.0000
  Si          0.23870      0.33342      0.94831  1.0000
  Si          0.63781      0.88749      0.28407  1.0000
  Si          0.07511      0.73662      0.61795  1.0000
  Si          0.72464      0.63683      0.44901  1.0000
  Si          0.32294      0.07644      0.78259  1.0000
  Si          0.88828      0.23826      0.11331  1.0000
  Si          0.31805      0.22625      0.37765  1.0000
  Si          0.89209      0.65750      0.03939  1.0000
  Si          0.74060      0.09330      0.71043  1.0000
  Si          0.64467      0.73867      0.87696  1.0000
  Si          0.06649      0.31195      0.54527  1.0000
  Si          0.23066      0.89580      0.21290  1.0000
  Si          0.96116      0.11385      0.96202  1.0000
  Si          0.85508      0.82332      0.29735  1.0000
  Si          0.12898      0.01543      0.63089  1.0000
  Si          0.00445      0.85447      0.46367  1.0000
  Si          0.10562      0.13808      0.79584  1.0000
  Si          0.83004      0.96127      0.13090  1.0000
  Si          0.10062      0.94574      0.36277  1.0000
  Si          0.83414      0.87555      0.02900  1.0000
  Si          0.02019      0.15000      0.69394  1.0000
  Si          0.86457      0.01649      0.86159  1.0000
  Si          0.12656      0.09836      0.52831  1.0000
  Si          0.95048      0.83575      0.19574  1.0000
  O2          0.91470      0.99981      0.99828  1.0000
  O2          0.97985      0.90332      0.32906  1.0000
  O2          0.04654      0.05506      0.66222  1.0000
  O2          0.04845      0.97602      0.49580  1.0000
  O2          0.98366      0.05835      0.82825  1.0000
  O2          0.91204      0.92138      0.16420  1.0000
  O2          0.31676      0.55176      0.32756  1.0000
  O2          0.42368      0.77075      0.65951  1.0000
  O2          0.21946      0.64891      0.99320  1.0000
  O2          0.64308      0.40830      0.83305  1.0000
  O2          0.56340      0.22725      0.17081  1.0000
  O2          0.73694      0.32021      0.50093  1.0000
  O3          0.56134      0.33357      0.99978  1.0000
  O2          0.73818      0.41819      0.66624  1.0000
  O2          0.63994      0.21239      0.33530  1.0000
  O2          0.39661      0.63554      0.49497  1.0000
  O2          0.21858      0.56926      0.16130  1.0000
  O2          0.32614      0.74910      0.82679  1.0000
  O2          0.11473      0.20491      0.96858  1.0000
  O2          0.76360      0.88516      0.30428  1.0000
  O2          0.07497      0.86224      0.63712  1.0000
  O2          0.85011      0.76482      0.46890  1.0000
  O2          0.19610      0.07417      0.80278  1.0000
  O2          0.89165      0.11531      0.13505  1.0000
  O2          0.19234      0.09949      0.35716  1.0000
  O2          0.90739      0.79434      0.02385  1.0000
  O2          0.86556      0.09717      0.68872  1.0000
  O2          0.77183      0.86288      0.85649  1.0000
  O2          0.06543      0.19045      0.52003  1.0000
  O2          0.10545      0.89960      0.19280  1.0000
  O2          0.90375      0.83803      0.24619  1.0000
  O2          0.11060      0.04466      0.57890  1.0000
  O2          0.92166      0.05328      0.91228  1.0000
  O2          0.05329      0.12455      0.74502  1.0000
  O2          0.84116      0.92122      0.08055  1.0000
  O2          0.04525      0.90617      0.41302  1.0000
  O2          0.89252      0.19737      0.97132  1.0000
  O2          0.77426      0.67172      0.30951  1.0000
  O2          0.28162      0.09086      0.64273  1.0000
  O2          0.07171      0.76994      0.47655  1.0000
  O2          0.18843      0.28926      0.80850  1.0000
  O2          0.67901      0.89168      0.14416  1.0000
  O2          0.18273      0.87551      0.35222  1.0000
  O2          0.68292      0.79096      0.01612  1.0000
  O3          0.09717      0.29636      0.68233  1.0000
  O2          0.78228      0.08692      0.85047  1.0000
  O2          0.27914      0.18043      0.51716  1.0000
  O2          0.88263      0.68698      0.18086  1.0000
  O2          0.30044      0.62566      0.24516  1.0000
  O2          0.33769      0.65764      0.57967  1.0000
  O2          0.30347      0.66696      0.91039  1.0000
  O2          0.65730      0.34832      0.74937  1.0000
  O3          0.60622      0.29817      0.08471  1.0000
  O2          0.65722      0.30135      0.41661  1.0000
  O2          0.36048      0.32450      0.96739  1.0000
  O2          0.64932      0.01849      0.30408  1.0000
  O2          0.94321      0.61391      0.63540  1.0000
  O2          0.60155      0.64614      0.46653  1.0000
  O2          0.31529      0.94417      0.79970  1.0000
  O2          0.02070      0.36383      0.13037  1.0000
  O2          0.30712      0.34755      0.35827  1.0000
  O2          0.02517      0.66137      0.02423  1.0000
  O2          0.61844      0.96045      0.69202  1.0000
  O2          0.65409      0.61583      0.85964  1.0000
  O2          0.93221      0.30711      0.52970  1.0000
  O2          0.35440      0.02843      0.19575  1.0000
  O3          0.74683      0.27976      0.00150  1.0000
  O2          0.67599      0.44195      0.34207  1.0000
  O2          0.51151      0.22663      0.67520  1.0000
  O2          0.20535      0.67175      0.50977  1.0000
  O2          0.28763      0.52132      0.83818  1.0000
  O2          0.44645      0.75919      0.17363  1.0000
  O2          0.27940      0.74363      0.31946  1.0000
  O2          0.45036      0.69108      0.98439  1.0000
  O3          0.23666      0.53469      0.65675  1.0000
  O2          0.68000      0.21870      0.82083  1.0000
  O2          0.51037      0.28343      0.48784  1.0000
  O2          0.74808      0.45484      0.15090  1.0000
  O3          0.76752      0.54338      0.01734  1.0000
  O2          0.44463      0.22578      0.35934  1.0000
  O2          0.73274      0.21613      0.69198  1.0000
  O2          0.19082      0.44391      0.52673  1.0000
  O2          0.51953      0.74024      0.85648  1.0000
  O2          0.22682      0.76960      0.19201  1.0000
  O2          0.51181      0.75987      0.30237  1.0000
  O2          0.23255      0.45651      0.96754  1.0000
  O2          0.20111      0.73223      0.63479  1.0000
  O2          0.44691      0.20246      0.80349  1.0000
  O2          0.72906      0.51444      0.47012  1.0000
  O2          0.76516      0.24162      0.13303  1.0000
  O2          0.21505      0.31500      0.89388  1.0000
  O2          0.65554      0.88959      0.22956  1.0000
  O2          0.07429      0.74599      0.56297  1.0000
  O2          0.74517      0.65268      0.39456  1.0000
  O2          0.30355      0.08048      0.72805  1.0000
  O2          0.88614      0.22350      0.05885  1.0000
  O2          0.30068      0.20810      0.43208  1.0000
  O2          0.88020      0.65890      0.09491  1.0000
  O2          0.75864      0.09254      0.76514  1.0000
  O2          0.66161      0.75922      0.93152  1.0000
  O3          0.07379      0.28880      0.59783  1.0000
  O2          0.21145      0.88951      0.26741  1.0000
  O2          0.56906      0.55224      0.98890  1.0000
  O2          0.42110      0.00134      0.32466  1.0000
  O3          0.94596      0.40027      0.66202  1.0000
  O2          0.38644      0.41781      0.48653  1.0000
  O2          0.54633      0.96069      0.81865  1.0000
  O2          0.00285      0.57125      0.14783  1.0000
  O2          0.53538      0.56039      0.33819  1.0000
  O2          0.00090      0.43228      0.00404  1.0000
  O2          0.39827      0.96867      0.67119  1.0000
  O2          0.42599      0.40111      0.84060  1.0000
  O2          0.95233      0.53504      0.51196  1.0000
  O2          0.57030      0.01735      0.17602  1.0000
  O2          0.56187      0.14474      0.25201  1.0000
  O2          0.81854      0.39895      0.58488  1.0000
  O2          0.57088      0.41337      0.91583  1.0000
  O2          0.40537      0.82930      0.74398  1.0000
  O2          0.13940      0.56755      0.07673  1.0000
  O2          0.39268      0.55768      0.41148  1.0000
  F           0.42952      0.88344      0.24817  1.0000
  F           0.07858      0.50179      0.59200  1.0000
  F           0.43324      0.54307      0.91285  1.0000
  F           0.53106      0.09073      0.74590  1.0000
  F           0.84590      0.42968      0.07009  1.0000
  F           0.52607      0.42918      0.41368  1.0000
