data_cif

_audit_creation_method             'generated by GULP'

_symmetry_space_group_name_H-M     'P 1'
_symmetry_Int_Tables_number        1
_symmetry_cell_setting             triclinic

_cell_length_a                       11.9312
_cell_length_b                       11.9709
_cell_length_c                       29.4792
_cell_angle_alpha                   90.4757
_cell_angle_beta                    90.0505
_cell_angle_gamma                  119.8719

loop_
_atom_site_label
_atom_site_fract_x
_atom_site_fract_y
_atom_site_fract_z
_atom_site_occupancy
  Ge          0.69960      0.37570      0.03389  1.0000
  Si          0.59651      0.31211      0.36410  1.0000
  Si          0.65100      0.27312      0.69841  1.0000
  Si          0.27408      0.61277      0.53002  1.0000
  Si          0.36165      0.66048      0.86376  1.0000
  Si          0.29801      0.69131      0.19687  1.0000
  Si          0.35153      0.68768      0.29725  1.0000
  Si          0.30779      0.60848      0.96372  1.0000
  Si          0.28240      0.66705      0.63307  1.0000
  Si          0.60187      0.27974      0.79877  1.0000
  Si          0.65113      0.37041      0.46453  1.0000
  Si          0.66634      0.30663      0.13188  1.0000
  Si          0.51993      0.40608      0.96634  1.0000
  Si          0.55700      0.09805      0.30071  1.0000
  Si          0.85579      0.45520      0.63402  1.0000
  Si          0.44285      0.57101      0.46363  1.0000
  Si          0.40092      0.86975      0.79925  1.0000
  Si          0.08904      0.51885      0.13016  1.0000
  Si          0.39073      0.51698      0.36202  1.0000
  Si          0.09363      0.57202      0.02720  1.0000
  Si          0.45612      0.86891      0.69802  1.0000
  Si          0.56742      0.45583      0.86379  1.0000
  Si          0.86022      0.40727      0.53010  1.0000
  Si          0.50455      0.09981      0.19932  1.0000
  Si          0.28533      0.38328      0.84890  1.0000
  Si          0.57695      0.89176      0.18269  1.0000
  Si          0.07095      0.69187      0.51304  1.0000
  Si          0.67246      0.58873      0.34838  1.0000
  Si          0.37417      0.07028      0.68194  1.0000
  Si          0.88135      0.28455      0.01089  1.0000
  Si          0.37124      0.29110      0.47824  1.0000
  Si          0.87378      0.59045      0.14314  1.0000
  Si          0.68160      0.08077      0.81373  1.0000
  Si          0.58639      0.68731      0.97846  1.0000
  Si          0.07250      0.38602      0.64752  1.0000
  Si          0.27547      0.88949      0.31348  1.0000
  Si          0.23971      0.32936      0.94942  1.0000
  Si          0.63308      0.89617      0.28349  1.0000
  Ge          0.06585      0.71884      0.61319  1.0000
  Si          0.72287      0.65029      0.44910  1.0000
  Si          0.32092      0.06887      0.78297  1.0000
  Si          0.88374      0.23810      0.11411  1.0000
  Si          0.31415      0.23903      0.37741  1.0000
  Si          0.89229      0.65715      0.04102  1.0000
  Si          0.73313      0.07253      0.71333  1.0000
  Si          0.64392      0.73486      0.87786  1.0000
  Si          0.06193      0.32648      0.54525  1.0000
  Si          0.22495      0.89907      0.21293  1.0000
  Si          0.96229      0.11065      0.96256  1.0000
  Si          0.85136      0.83419      0.29736  1.0000
  Si          0.12612      0.00521      0.63000  1.0000
  Si          0.00260      0.86827      0.46292  1.0000
  Si          0.10548      0.13501      0.79715  1.0000
  Si          0.82487      0.96134      0.13116  1.0000
  Si          0.09550      0.95964      0.36265  1.0000
  Si          0.83434      0.87471      0.02960  1.0000
  Si          0.01359      0.13772      0.69605  1.0000
  Si          0.86337      0.01280      0.86252  1.0000
  Si          0.12737      0.10885      0.53035  1.0000
  Si          0.94504      0.83853      0.19605  1.0000
  O2          0.91440      0.99608      0.99803  1.0000
  O2          0.97561      0.91628      0.32882  1.0000
  O2          0.05675      0.06297      0.66194  1.0000
  O2          0.04743      0.98894      0.49659  1.0000
  O2          0.98074      0.05399      0.82802  1.0000
  O2          0.90644      0.92180      0.16404  1.0000
  O2          0.31334      0.56439      0.32928  1.0000
  O2          0.41003      0.74286      0.66525  1.0000
  O2          0.22135      0.64650      0.99648  1.0000
  O2          0.64176      0.40392      0.83128  1.0000
  O2          0.55568      0.22802      0.16926  1.0000
  O2          0.73461      0.33119      0.49752  1.0000
  O3          0.56442      0.33150      0.99828  1.0000
  O2          0.72801      0.39392      0.66480  1.0000
  O2          0.63514      0.22415      0.33295  1.0000
  O2          0.39410      0.64734      0.49658  1.0000
  O2          0.21271      0.56855      0.16346  1.0000
  O2          0.32302      0.74508      0.83123  1.0000
  O2          0.11592      0.20049      0.96925  1.0000
  O2          0.75938      0.89625      0.30378  1.0000
  O3          0.05797      0.85616      0.63440  1.0000
  O2          0.84789      0.77861      0.46895  1.0000
  O2          0.19467      0.06972      0.80302  1.0000
  O2          0.88527      0.11532      0.13614  1.0000
  O2          0.18803      0.11314      0.35668  1.0000
  O2          0.90922      0.79433      0.02557  1.0000
  O2          0.85870      0.07285      0.69231  1.0000
  O2          0.77080      0.85890      0.85740  1.0000
  O2          0.06369      0.20112      0.52561  1.0000
  O2          0.09971      0.90128      0.19263  1.0000
  O2          0.89997      0.84564      0.24636  1.0000
  O2          0.12005      0.05778      0.58018  1.0000
  O2          0.92346      0.05106      0.91256  1.0000
  O2          0.05856      0.12687      0.74595  1.0000
  O2          0.83884      0.92377      0.08057  1.0000
  O2          0.03931      0.92449      0.41276  1.0000
  O2          0.89467      0.19536      0.97251  1.0000
  O2          0.77089      0.68332      0.30995  1.0000
  O2          0.27904      0.06903      0.64268  1.0000
  O2          0.06892      0.78094      0.47152  1.0000
  O2          0.18707      0.28570      0.81046  1.0000
  O2          0.67338      0.89067      0.14408  1.0000
  O2          0.17768      0.88857      0.35201  1.0000
  O2          0.68377      0.78802      0.01666  1.0000
  O2          0.07682      0.28974      0.68460  1.0000
  O2          0.78005      0.08266      0.85246  1.0000
  O2          0.27766      0.19409      0.51676  1.0000
  O2          0.87624      0.68839      0.18193  1.0000
  O2          0.29628      0.63126      0.24649  1.0000
  O2          0.32935      0.66644      0.58063  1.0000
  O2          0.30309      0.66319      0.91366  1.0000
  O2          0.65691      0.33512      0.74843  1.0000
  O3          0.60359      0.29990      0.08403  1.0000
  O2          0.65307      0.31298      0.41446  1.0000
  O2          0.36215      0.32055      0.96721  1.0000
  O2          0.64410      0.02851      0.30269  1.0000
  O3          0.91739      0.60685      0.63865  1.0000
  O2          0.59907      0.65888      0.46720  1.0000
  O2          0.31316      0.93868      0.80201  1.0000
  O2          0.01547      0.36325      0.13181  1.0000
  O2          0.30345      0.36087      0.35918  1.0000
  O2          0.02556      0.66001      0.02628  1.0000
  O2          0.61243      0.93783      0.69547  1.0000
  O2          0.65327      0.61168      0.85970  1.0000
  O2          0.93147      0.32171      0.52734  1.0000
  O2          0.34802      0.03051      0.19505  1.0000
  O3          0.74865      0.27884      0.00208  1.0000
  O2          0.67181      0.45398      0.34129  1.0000
  O2          0.50780      0.20509      0.67596  1.0000
  O2          0.20420      0.68622      0.50804  1.0000
  O2          0.28627      0.51750      0.84066  1.0000
  O2          0.44097      0.75954      0.17429  1.0000
  O2          0.27510      0.75501      0.31973  1.0000
  O2          0.45157      0.68759      0.98614  1.0000
  O2          0.20703      0.52023      0.65213  1.0000
  O2          0.67815      0.21299      0.82157  1.0000
  O2          0.50763      0.29579      0.48635  1.0000
  O2          0.74208      0.45603      0.15099  1.0000
  O3          0.76825      0.54354      0.01840  1.0000
  O2          0.44029      0.23813      0.35823  1.0000
  O2          0.73120      0.19659      0.69311  1.0000
  O2          0.18407      0.45763      0.52795  1.0000
  O2          0.51818      0.73633      0.85851  1.0000
  O2          0.22124      0.77116      0.19281  1.0000
  O2          0.50770      0.76992      0.30251  1.0000
  O2          0.23402      0.45282      0.96959  1.0000
  O3          0.20957      0.74714      0.64062  1.0000
  O2          0.44546      0.19703      0.80242  1.0000
  O2          0.72548      0.52651      0.46918  1.0000
  O2          0.75948      0.24222      0.13281  1.0000
  O2          0.21517      0.31092      0.89523  1.0000
  O2          0.65038      0.89407      0.22918  1.0000
  O3          0.06871      0.77030      0.55630  1.0000
  O2          0.74215      0.66509      0.39477  1.0000
  O2          0.30051      0.06513      0.72870  1.0000
  O2          0.88486      0.22225      0.05986  1.0000
  O2          0.29730      0.21983      0.43164  1.0000
  O2          0.87824      0.65977      0.09623  1.0000
  O2          0.75442      0.07776      0.76765  1.0000
  O2          0.66164      0.75589      0.93221  1.0000
  O2          0.06250      0.31641      0.59936  1.0000
  O2          0.20595      0.89682      0.26724  1.0000
  O2          0.57109      0.54907      0.98831  1.0000
  O2          0.41579      0.01292      0.32347  1.0000
  O2          0.95047      0.40598      0.65520  1.0000
  O2          0.38233      0.42985      0.48643  1.0000
  O2          0.54288      0.95462      0.82223  1.0000
  O2          0.99709      0.57102      0.14946  1.0000
  O2          0.53228      0.57377      0.33916  1.0000
  O2          0.00270      0.43040      0.00597  1.0000
  O2          0.39740      0.95003      0.67402  1.0000
  O2          0.42503      0.39671      0.84097  1.0000
  O2          0.94712      0.54768      0.50767  1.0000
  O2          0.56407      0.01829      0.17528  1.0000
  O2          0.55572      0.15112      0.25040  1.0000
  O2          0.81163      0.40744      0.58125  1.0000
  O2          0.57123      0.40890      0.91471  1.0000
  O2          0.40150      0.81593      0.74844  1.0000
  O2          0.13708      0.56654      0.07915  1.0000
  O2          0.39014      0.57161      0.41275  1.0000
  F           0.42446      0.88935      0.24772  1.0000
  F           0.06832      0.57224      0.58587  1.0000
  F           0.43283      0.53890      0.91364  1.0000
  F           0.53270      0.07782      0.74836  1.0000
  F           0.84416      0.42948      0.07080  1.0000
  F           0.52196      0.44147      0.41347  1.0000
