data_cif

_audit_creation_method             'generated by GULP'

_symmetry_space_group_name_H-M     'P 1'
_symmetry_Int_Tables_number        1
_symmetry_cell_setting             triclinic

_cell_length_a                       11.9694
_cell_length_b                       11.9698
_cell_length_c                       29.4723
_cell_angle_alpha                   90.4798
_cell_angle_beta                    90.2344
_cell_angle_gamma                  120.1930

loop_
_atom_site_label
_atom_site_fract_x
_atom_site_fract_y
_atom_site_fract_z
_atom_site_occupancy
  Ge          0.69960      0.37570      0.03389  1.0000
  Si          0.59620      0.31022      0.36483  1.0000
  Si          0.66031      0.28093      0.69887  1.0000
  Si          0.27828      0.60766      0.52652  1.0000
  Si          0.36326      0.65931      0.86200  1.0000
  Si          0.30229      0.69491      0.19532  1.0000
  Si          0.35404      0.68689      0.29552  1.0000
  Si          0.30765      0.60999      0.96215  1.0000
  Si          0.28206      0.65974      0.62963  1.0000
  Si          0.60670      0.28038      0.79945  1.0000
  Si          0.64634      0.37128      0.46508  1.0000
  Si          0.67076      0.30876      0.13204  1.0000
  Si          0.51882      0.40601      0.96696  1.0000
  Si          0.56071      0.09723      0.30135  1.0000
  Si          0.86730      0.45259      0.63370  1.0000
  Si          0.44883      0.57893      0.46090  1.0000
  Si          0.40204      0.86823      0.79698  1.0000
  Si          0.09272      0.52339      0.12834  1.0000
  Si          0.39393      0.51636      0.35970  1.0000
  Si          0.09394      0.57483      0.02534  1.0000
  Si          0.45440      0.87285      0.69537  1.0000
  Si          0.56813      0.45357      0.86439  1.0000
  Si          0.85314      0.39512      0.52982  1.0000
  Si          0.51012      0.10268      0.19992  1.0000
  Si          0.28729      0.38140      0.84824  1.0000
  Si          0.58165      0.89519      0.18257  1.0000
  Si          0.06778      0.67955      0.51421  1.0000
  Si          0.67430      0.58637      0.34717  1.0000
  Si          0.38154      0.08061      0.68237  1.0000
  Si          0.88052      0.28588      0.00992  1.0000
  Si          0.36830      0.29651      0.47863  1.0000
  Si          0.87856      0.59463      0.14222  1.0000
  Si          0.68410      0.07884      0.81256  1.0000
  Si          0.58590      0.68847      0.97827  1.0000
  Si          0.08014      0.37918      0.64871  1.0000
  Si          0.27792      0.88778      0.31283  1.0000
  Si          0.23944      0.32974      0.94873  1.0000
  Si          0.63733      0.89623      0.28339  1.0000
  Si          0.06817      0.73361      0.61651  1.0000
  Si          0.72644      0.65276      0.44748  1.0000
  Si          0.32479      0.07005      0.78309  1.0000
  Si          0.88690      0.24077      0.11308  1.0000
  Si          0.31467      0.23854      0.37755  1.0000
  Si          0.89291      0.65855      0.03985  1.0000
  Si          0.73385      0.07342      0.71172  1.0000
  Si          0.64382      0.73283      0.87767  1.0000
  Ge          0.06429      0.34113      0.54856  1.0000
  Si          0.22966      0.90185      0.21225  1.0000
  Si          0.96110      0.11153      0.96275  1.0000
  Si          0.85463      0.83289      0.29748  1.0000
  Si          0.13529      0.01746      0.63047  1.0000
  Si          0.00733      0.86782      0.46471  1.0000
  Si          0.10664      0.13024      0.79793  1.0000
  Si          0.82916      0.96412      0.13135  1.0000
  Si          0.09876      0.95591      0.36345  1.0000
  Si          0.83437      0.87557      0.02975  1.0000
  Si          0.01335      0.13473      0.69779  1.0000
  Si          0.86437      0.01033      0.86271  1.0000
  Si          0.12295      0.11430      0.53096  1.0000
  Si          0.95057      0.84270      0.19616  1.0000
  O2          0.91438      0.99966      0.99927  1.0000
  O2          0.97561      0.91149      0.33096  1.0000
  O2          0.05607      0.05934      0.66323  1.0000
  O2          0.05275      0.98837      0.49791  1.0000
  O2          0.98525      0.05127      0.83024  1.0000
  O2          0.91098      0.92683      0.16497  1.0000
  O2          0.31570      0.56174      0.32651  1.0000
  O2          0.40596      0.74845      0.66161  1.0000
  O2          0.22081      0.64854      0.99409  1.0000
  O2          0.64502      0.40292      0.83272  1.0000
  O2          0.56241      0.23196      0.17015  1.0000
  O2          0.72207      0.32857      0.49989  1.0000
  O3          0.56222      0.33136      0.99917  1.0000
  O2          0.74504      0.40561      0.66699  1.0000
  O2          0.63624      0.22206      0.33448  1.0000
  O2          0.40200      0.65885      0.49290  1.0000
  O2          0.21734      0.57311      0.16112  1.0000
  O2          0.32485      0.74235      0.82851  1.0000
  O2          0.11499      0.20168      0.96876  1.0000
  O2          0.76311      0.89529      0.30344  1.0000
  O2          0.07315      0.86209      0.63621  1.0000
  O2          0.85219      0.77970      0.46817  1.0000
  O2          0.19812      0.06777      0.80357  1.0000
  O2          0.89060      0.11891      0.13490  1.0000
  O2          0.18904      0.10997      0.35724  1.0000
  O2          0.90801      0.79488      0.02405  1.0000
  O2          0.85883      0.07181      0.69149  1.0000
  O2          0.77115      0.85635      0.85699  1.0000
  O3          0.05326      0.19401      0.52750  1.0000
  O2          0.10507      0.90551      0.19213  1.0000
  O2          0.90785      0.84878      0.24690  1.0000
  O2          0.12292      0.05505      0.57998  1.0000
  O2          0.91979      0.04791      0.91332  1.0000
  O2          0.05130      0.11251      0.74743  1.0000
  O2          0.84100      0.92143      0.08126  1.0000
  O2          0.05067      0.91945      0.41434  1.0000
  O2          0.89389      0.19671      0.97152  1.0000
  O2          0.77233      0.68058      0.30836  1.0000
  O2          0.28662      0.08491      0.64377  1.0000
  O2          0.06906      0.77818      0.47685  1.0000
  O2          0.18931      0.28257      0.80958  1.0000
  O2          0.67804      0.89461      0.14409  1.0000
  O2          0.17990      0.88532      0.35118  1.0000
  O2          0.68336      0.78999      0.01654  1.0000
  O2          0.08127      0.28898      0.68991  1.0000
  O2          0.78297      0.08083      0.85094  1.0000
  O2          0.27467      0.20509      0.51787  1.0000
  O2          0.88128      0.69268      0.18101  1.0000
  O2          0.29920      0.63217      0.24447  1.0000
  O2          0.33138      0.65786      0.57848  1.0000
  O2          0.30443      0.66325      0.91160  1.0000
  O2          0.66195      0.33832      0.74931  1.0000
  O3          0.60600      0.29987      0.08426  1.0000
  O2          0.65266      0.31374      0.41541  1.0000
  O2          0.36093      0.32085      0.96720  1.0000
  O2          0.64807      0.02835      0.30295  1.0000
  O2          0.93912      0.60960      0.63535  1.0000
  O2          0.60519      0.66716      0.46366  1.0000
  O2          0.31459      0.93683      0.79989  1.0000
  O2          0.01936      0.36739      0.12991  1.0000
  O2          0.30631      0.35957      0.35707  1.0000
  O2          0.02563      0.66224      0.02429  1.0000
  O2          0.61060      0.94191      0.69201  1.0000
  O2          0.65365      0.60976      0.85990  1.0000
  O3          0.91320      0.30403      0.52413  1.0000
  O2          0.35375      0.03410      0.19504  1.0000
  O3          0.74753      0.27924      0.00137  1.0000
  O2          0.67160      0.45053      0.34041  1.0000
  O2          0.51750      0.21348      0.67549  1.0000
  O2          0.20114      0.67849      0.50812  1.0000
  O2          0.28858      0.51544      0.83908  1.0000
  O2          0.44537      0.76326      0.17303  1.0000
  O2          0.27694      0.75270      0.31816  1.0000
  O2          0.45139      0.68920      0.98483  1.0000
  O2          0.21468      0.51758      0.65215  1.0000
  O2          0.68286      0.21215      0.82066  1.0000
  O2          0.50232      0.29664      0.48582  1.0000
  O2          0.74716      0.45948      0.15028  1.0000
  O3          0.76766      0.54354      0.01785  1.0000
  O2          0.43964      0.23405      0.35954  1.0000
  O2          0.73676      0.20142      0.69306  1.0000
  O3          0.20486      0.45443      0.51954  1.0000
  O2          0.51982      0.73571      0.85739  1.0000
  O2          0.22536      0.77436      0.19131  1.0000
  O2          0.51019      0.76978      0.30149  1.0000
  O2          0.23413      0.45410      0.96805  1.0000
  O2          0.19166      0.72429      0.63238  1.0000
  O2          0.45059      0.19579      0.80362  1.0000
  O2          0.72410      0.52816      0.46916  1.0000
  O2          0.76379      0.24478      0.13247  1.0000
  O2          0.21573      0.30950      0.89444  1.0000
  O2          0.65461      0.89600      0.22901  1.0000
  O2          0.06300      0.74192      0.56232  1.0000
  O2          0.74751      0.66499      0.39316  1.0000
  O2          0.30759      0.07544      0.72883  1.0000
  O2          0.88484      0.22358      0.05877  1.0000
  O2          0.29451      0.22531      0.43172  1.0000
  O2          0.88188      0.66279      0.09511  1.0000
  O2          0.75334      0.07444      0.76602  1.0000
  O2          0.66152      0.75593      0.93196  1.0000
  O3          0.07281      0.29599      0.60530  1.0000
  O2          0.20982      0.89710      0.26650  1.0000
  O2          0.56929      0.54978      0.98845  1.0000
  O2          0.41892      0.01032      0.32328  1.0000
  O2          0.95788      0.40133      0.65504  1.0000
  O2          0.39147      0.44027      0.48513  1.0000
  O2          0.54387      0.95351      0.82029  1.0000
  O2          0.00179      0.57558      0.14808  1.0000
  O2          0.53559      0.57366      0.33709  1.0000
  O2          0.00216      0.43212      0.00452  1.0000
  O2          0.39269      0.95336      0.67275  1.0000
  O2          0.42627      0.39332      0.84077  1.0000
  O2          0.94433      0.53761      0.50750  1.0000
  O2          0.57024      0.02263      0.17547  1.0000
  O2          0.56075      0.15243      0.25122  1.0000
  O2          0.81410      0.40108      0.58273  1.0000
  O2          0.57070      0.40762      0.91551  1.0000
  O2          0.40207      0.81658      0.74564  1.0000
  O2          0.13909      0.57119      0.07717  1.0000
  O2          0.39388      0.57394      0.40988  1.0000
  F           0.42805      0.89010      0.24641  1.0000
  F           0.07006      0.49222      0.57531  1.0000
  F           0.43361      0.53806      0.91230  1.0000
  F           0.53299      0.07855      0.74603  1.0000
  F           0.84613      0.43128      0.06986  1.0000
  F           0.52580      0.44420      0.41110  1.0000
