data_cif

_audit_creation_method             'generated by GULP'

_symmetry_space_group_name_H-M     'P 1'
_symmetry_Int_Tables_number        1
_symmetry_cell_setting             triclinic

_cell_length_a                       11.9353
_cell_length_b                       12.0201
_cell_length_c                       29.4548
_cell_angle_alpha                   90.1791
_cell_angle_beta                    90.4172
_cell_angle_gamma                  120.1372

loop_
_atom_site_label
_atom_site_fract_x
_atom_site_fract_y
_atom_site_fract_z
_atom_site_occupancy
  Ge          0.69960      0.37570      0.03389  1.0000
  Si          0.59927      0.31137      0.36541  1.0000
  Si          0.66253      0.29171      0.69749  1.0000
  Si          0.27520      0.61083      0.52951  1.0000
  Si          0.36782      0.67063      0.86132  1.0000
  Si          0.30182      0.69633      0.19720  1.0000
  Si          0.35520      0.68846      0.29762  1.0000
  Si          0.30840      0.61502      0.96103  1.0000
  Si          0.28209      0.66964      0.63009  1.0000
  Si          0.61004      0.29195      0.79829  1.0000
  Si          0.65433      0.37052      0.46600  1.0000
  Si          0.66954      0.31133      0.13255  1.0000
  Si          0.52450      0.41298      0.96582  1.0000
  Si          0.56251      0.09906      0.30203  1.0000
  Si          0.87133      0.46391      0.63279  1.0000
  Si          0.44488      0.57167      0.46387  1.0000
  Si          0.40466      0.88016      0.79663  1.0000
  Si          0.09318      0.52523      0.12944  1.0000
  Si          0.39236      0.51507      0.36206  1.0000
  Si          0.09610      0.57200      0.02632  1.0000
  Si          0.45589      0.88184      0.69485  1.0000
  Si          0.57519      0.46635      0.86334  1.0000
  Si          0.86619      0.40889      0.53112  1.0000
  Si          0.50990      0.10452      0.20048  1.0000
  Si          0.29350      0.39421      0.84619  1.0000
  Si          0.58109      0.89728      0.18355  1.0000
  Si          0.07381      0.68835      0.51586  1.0000
  Si          0.67400      0.58666      0.34924  1.0000
  Si          0.38396      0.08991      0.68158  1.0000
  Si          0.88115      0.28449      0.01193  1.0000
  Si          0.37460      0.29279      0.47895  1.0000
  Si          0.87699      0.59665      0.14147  1.0000
  Si          0.68655      0.09034      0.81161  1.0000
  Si          0.58572      0.69171      0.97786  1.0000
  Si          0.08171      0.39249      0.64589  1.0000
  Si          0.28007      0.88975      0.31442  1.0000
  Si          0.24531      0.33902      0.94652  1.0000
  Si          0.63799      0.89796      0.28436  1.0000
  Si          0.07195      0.74181      0.61664  1.0000
  Si          0.72502      0.64944      0.44982  1.0000
  Si          0.32806      0.08160      0.78226  1.0000
  Si          0.88637      0.24304      0.11554  1.0000
  Si          0.31675      0.23838      0.37816  1.0000
  Si          0.89425      0.65644      0.03866  1.0000
  Si          0.73540      0.08413      0.71088  1.0000
  Si          0.64990      0.74403      0.87796  1.0000
  Si          0.06748      0.33069      0.54515  1.0000
  Si          0.22966      0.90282      0.21387  1.0000
  Si          0.96798      0.11882      0.96173  1.0000
  Si          0.85430      0.83232      0.29861  1.0000
  Si          0.13432      0.02144      0.63068  1.0000
  Si          0.00577      0.86803      0.46499  1.0000
  Si          0.11092      0.14433      0.79624  1.0000
  Si          0.83070      0.96867      0.13354  1.0000
  Si          0.09973      0.95730      0.36411  1.0000
  Ge          0.83840      0.87835      0.02947  1.0000
  Si          0.01548      0.14537      0.69552  1.0000
  Si          0.86821      0.02208      0.86141  1.0000
  Si          0.12811      0.11239      0.52995  1.0000
  Si          0.94929      0.84206      0.19718  1.0000
  O3          0.93378      0.00725      0.99654  1.0000
  O2          0.97780      0.91303      0.33087  1.0000
  O2          0.05469      0.06492      0.66236  1.0000
  O2          0.04749      0.99078      0.49704  1.0000
  O2          0.98827      0.06481      0.82814  1.0000
  O2          0.91044      0.93003      0.16810  1.0000
  O2          0.31610      0.56370      0.32898  1.0000
  O2          0.40761      0.75667      0.66213  1.0000
  O2          0.22044      0.64871      0.99411  1.0000
  O2          0.65040      0.41497      0.83123  1.0000
  O2          0.56047      0.23329      0.17056  1.0000
  O2          0.73803      0.33208      0.49920  1.0000
  O3          0.56449      0.33480      0.99790  1.0000
  O2          0.74711      0.41567      0.66552  1.0000
  O2          0.63913      0.22430      0.33469  1.0000
  O2          0.39618      0.64862      0.49586  1.0000
  O2          0.21620      0.57492      0.16329  1.0000
  O2          0.32898      0.75431      0.82832  1.0000
  O2          0.12137      0.21266      0.96655  1.0000
  O2          0.76420      0.89634      0.30414  1.0000
  O2          0.07222      0.86799      0.63660  1.0000
  O2          0.85092      0.77738      0.46985  1.0000
  O2          0.20121      0.08062      0.80225  1.0000
  O2          0.88959      0.12262      0.13854  1.0000
  O2          0.19044      0.11083      0.35800  1.0000
  O3          0.91531      0.79137      0.02190  1.0000
  O2          0.86086      0.08367      0.69029  1.0000
  O2          0.77645      0.86806      0.85710  1.0000
  O2          0.06406      0.20262      0.52537  1.0000
  O2          0.10424      0.90522      0.19356  1.0000
  O2          0.90468      0.84134      0.24806  1.0000
  O2          0.11878      0.05837      0.57994  1.0000
  O2          0.92488      0.06094      0.91169  1.0000
  O2          0.05721      0.13035      0.74556  1.0000
  O3          0.85201      0.93256      0.08431  1.0000
  O2          0.04644      0.91982      0.41449  1.0000
  O2          0.89215      0.19377      0.97413  1.0000
  O2          0.77200      0.68162      0.31078  1.0000
  O2          0.28673      0.09193      0.64300  1.0000
  O2          0.07460      0.78593      0.47761  1.0000
  O2          0.19498      0.29613      0.80763  1.0000
  O2          0.67765      0.89745      0.14492  1.0000
  O2          0.18246      0.88783      0.35295  1.0000
  O3          0.67650      0.79043      0.01727  1.0000
  O2          0.08569      0.29692      0.68395  1.0000
  O2          0.78525      0.09111      0.85005  1.0000
  O2          0.27940      0.19597      0.51742  1.0000
  O2          0.88004      0.69473      0.17991  1.0000
  O2          0.29995      0.63439      0.24655  1.0000
  O2          0.33683      0.66903      0.57951  1.0000
  O2          0.30558      0.67026      0.91072  1.0000
  O2          0.66481      0.34876      0.74797  1.0000
  O3          0.60505      0.30195      0.08446  1.0000
  O2          0.65634      0.31354      0.41593  1.0000
  O2          0.36639      0.32899      0.96517  1.0000
  O2          0.64958      0.02976      0.30391  1.0000
  O2          0.94034      0.61985      0.63543  1.0000
  O2          0.60180      0.65957      0.46701  1.0000
  O2          0.31750      0.94914      0.80003  1.0000
  O2          0.01854      0.37004      0.13201  1.0000
  O2          0.30539      0.35891      0.35892  1.0000
  O2          0.02687      0.65745      0.02541  1.0000
  O2          0.61276      0.95174      0.69200  1.0000
  O2          0.66048      0.62226      0.85966  1.0000
  O2          0.93392      0.32086      0.52727  1.0000
  O2          0.35293      0.03482      0.19619  1.0000
  O3          0.74796      0.27826      0.00280  1.0000
  O2          0.67381      0.45273      0.34211  1.0000
  O2          0.51861      0.22371      0.67455  1.0000
  O2          0.20661      0.68602      0.50754  1.0000
  O2          0.29529      0.52838      0.83784  1.0000
  O2          0.44479      0.76527      0.17454  1.0000
  O2          0.27915      0.75525      0.32016  1.0000
  O2          0.45156      0.69343      0.98396  1.0000
  O2          0.21611      0.52742      0.65262  1.0000
  O2          0.68568      0.22319      0.81987  1.0000
  O2          0.50995      0.29535      0.48731  1.0000
  O2          0.74621      0.46147      0.15049  1.0000
  O3          0.76851      0.54165      0.01667  1.0000
  O2          0.44250      0.23637      0.35940  1.0000
  O2          0.73727      0.21080      0.69188  1.0000
  O2          0.19326      0.45482      0.52486  1.0000
  O2          0.52503      0.74738      0.85815  1.0000
  O2          0.22481      0.77549      0.19335  1.0000
  O2          0.51178      0.77141      0.30301  1.0000
  O2          0.23655      0.46018      0.96613  1.0000
  O2          0.19976      0.74308      0.63544  1.0000
  O2          0.45344      0.20800      0.80255  1.0000
  O2          0.72689      0.52622      0.47040  1.0000
  O2          0.76253      0.24751      0.13398  1.0000
  O2          0.22237      0.32102      0.89220  1.0000
  O2          0.65492      0.89829      0.22998  1.0000
  O2          0.07130      0.75931      0.56228  1.0000
  O2          0.74498      0.66372      0.39550  1.0000
  O2          0.30938      0.08429      0.72793  1.0000
  O2          0.88393      0.22270      0.06126  1.0000
  O2          0.29932      0.22114      0.43245  1.0000
  O2          0.87648      0.66203      0.09398  1.0000
  O2          0.75654      0.08648      0.76519  1.0000
  O2          0.66812      0.76423      0.93262  1.0000
  O2          0.07342      0.31619      0.59943  1.0000
  O2          0.21075      0.89878      0.26819  1.0000
  O2          0.57332      0.55496      0.98796  1.0000
  O2          0.42112      0.01257      0.32454  1.0000
  O2          0.95738      0.40804      0.65535  1.0000
  O2          0.38807      0.43164      0.48709  1.0000
  O2          0.54694      0.96476      0.81979  1.0000
  O2          0.00220      0.57982      0.14694  1.0000
  O2          0.53416      0.57235      0.33941  1.0000
  O2          0.00477      0.42885      0.00645  1.0000
  O2          0.39749      0.96496      0.67193  1.0000
  O2          0.43370      0.40810      0.83927  1.0000
  O2          0.94744      0.54886      0.50739  1.0000
  O2          0.56893      0.02388      0.17614  1.0000
  O2          0.56169      0.15367      0.25176  1.0000
  O2          0.81533      0.40951      0.58207  1.0000
  O2          0.57788      0.41842      0.91431  1.0000
  O2          0.40340      0.82824      0.74545  1.0000
  O2          0.14320      0.56970      0.07820  1.0000
  O2          0.39126      0.56910      0.41266  1.0000
  F           0.42906      0.89215      0.24806  1.0000
  F           0.07737      0.53983      0.58025  1.0000
  F           0.44070      0.54922      0.91221  1.0000
  F           0.53500      0.08975      0.74611  1.0000
  F           0.84586      0.43161      0.07057  1.0000
  F           0.52421      0.44027      0.41339  1.0000
