data_cif

_audit_creation_method             'generated by GULP'

_symmetry_space_group_name_H-M     'P 1'
_symmetry_Int_Tables_number        1
_symmetry_cell_setting             triclinic

_cell_length_a                       11.9877
_cell_length_b                       11.9266
_cell_length_c                       29.4725
_cell_angle_alpha                   89.7914
_cell_angle_beta                    90.3628
_cell_angle_gamma                  119.9167

loop_
_atom_site_label
_atom_site_fract_x
_atom_site_fract_y
_atom_site_fract_z
_atom_site_occupancy
  Si          0.69960      0.37570      0.03389  1.0000
  Si          0.61513      0.30058      0.37014  1.0000
  Si          0.67313      0.27828      0.70097  1.0000
  Si          0.29108      0.60317      0.53640  1.0000
  Si          0.38190      0.66403      0.87044  1.0000
  Si          0.32585      0.70033      0.20362  1.0000
  Si          0.37660      0.69040      0.30588  1.0000
  Si          0.32553      0.61382      0.97262  1.0000
  Si          0.29164      0.65739      0.63715  1.0000
  Si          0.62108      0.28168      0.80138  1.0000
  Si          0.66623      0.35923      0.47166  1.0000
  Si          0.70544      0.32318      0.13552  1.0000
  Ge          0.52838      0.42257      0.96749  1.0000
  Ge          0.56623      0.08499      0.30237  1.0000
  Si          0.88339      0.45224      0.63726  1.0000
  Si          0.46169      0.56425      0.47125  1.0000
  Si          0.41934      0.87274      0.80370  1.0000
  Si          0.11579      0.53065      0.13687  1.0000
  Si          0.41260      0.51269      0.36993  1.0000
  Si          0.11382      0.58016      0.03577  1.0000
  Si          0.46631      0.86658      0.70231  1.0000
  Si          0.59276      0.45359      0.86859  1.0000
  Si          0.87886      0.39809      0.53582  1.0000
  Si          0.53502      0.12267      0.20343  1.0000
  Si          0.30578      0.38162      0.85614  1.0000
  Si          0.60699      0.90670      0.19007  1.0000
  Si          0.08876      0.67951      0.52193  1.0000
  Si          0.69190      0.58210      0.35668  1.0000
  Si          0.39456      0.07685      0.68791  1.0000
  Si          0.90417      0.29989      0.02175  1.0000
  Si          0.38924      0.28328      0.48599  1.0000
  Si          0.90791      0.60153      0.15060  1.0000
  Si          0.69870      0.08068      0.81753  1.0000
  Si          0.60851      0.69570      0.99100  1.0000
  Si          0.09049      0.37920      0.65226  1.0000
  Si          0.29429      0.89165      0.32489  1.0000
  Si          0.24977      0.32450      0.95841  1.0000
  Si          0.66428      0.90357      0.29226  1.0000
  Si          0.08384      0.73082      0.62255  1.0000
  Si          0.73930      0.64148      0.45722  1.0000
  Si          0.33957      0.07284      0.78863  1.0000
  Si          0.91533      0.25168      0.12235  1.0000
  Si          0.33441      0.23313      0.38500  1.0000
  Si          0.91278      0.65744      0.04978  1.0000
  Si          0.74527      0.06838      0.71694  1.0000
  Si          0.66675      0.73459      0.88784  1.0000
  Si          0.08095      0.32171      0.55161  1.0000
  Si          0.25534      0.91540      0.22184  1.0000
  Si          0.96542      0.11577      0.97195  1.0000
  Si          0.87402      0.82779      0.30602  1.0000
  Si          0.14592      0.01125      0.63852  1.0000
  Si          0.01825      0.86002      0.47292  1.0000
  Si          0.12140      0.13431      0.80535  1.0000
  Si          0.85481      0.97218      0.14031  1.0000
  Si          0.11124      0.95286      0.37261  1.0000
  Si          0.85294      0.87929      0.03945  1.0000
  Si          0.02521      0.13222      0.70415  1.0000
  Si          0.87950      0.01648      0.87077  1.0000
  Si          0.14289      0.10393      0.53759  1.0000
  Si          0.97336      0.84539      0.20497  1.0000
  O2          0.93072      0.00117      0.00711  1.0000
  O2          0.99115      0.91205      0.33962  1.0000
  O2          0.06978      0.05179      0.67327  1.0000
  O2          0.05965      0.97820      0.50721  1.0000
  O2          0.00425      0.05732      0.83998  1.0000
  O2          0.93186      0.93224      0.17542  1.0000
  O2          0.33819      0.56388      0.33653  1.0000
  O2          0.41543      0.74066      0.67005  1.0000
  O2          0.23955      0.65401      0.00311  1.0000
  O2          0.66325      0.41041      0.83133  1.0000
  O2          0.57904      0.23781      0.16630  1.0000
  O2          0.75221      0.32086      0.50423  1.0000
  O3          0.57989      0.33609      0.00282  1.0000
  O2          0.75679      0.40213      0.66885  1.0000
  O3          0.65314      0.21966      0.33892  1.0000
  O2          0.41255      0.64126      0.50356  1.0000
  O2          0.24189      0.58140      0.16975  1.0000
  O2          0.34499      0.74763      0.83696  1.0000
  O2          0.11770      0.20615      0.97687  1.0000
  O2          0.78206      0.88817      0.31067  1.0000
  O2          0.08248      0.85651      0.64281  1.0000
  O2          0.86477      0.76798      0.47791  1.0000
  O2          0.21274      0.07076      0.80896  1.0000
  O2          0.91778      0.12695      0.14356  1.0000
  O2          0.20762      0.10587      0.36526  1.0000
  O2          0.91111      0.78479      0.03073  1.0000
  O2          0.87123      0.06731      0.69758  1.0000
  O2          0.78887      0.86152      0.86644  1.0000
  O2          0.08009      0.19525      0.53126  1.0000
  O2          0.12776      0.91064      0.20075  1.0000
  O2          0.93082      0.84401      0.25608  1.0000
  O2          0.13168      0.05643      0.58899  1.0000
  O2          0.92496      0.05713      0.92197  1.0000
  O2          0.06275      0.12196      0.75567  1.0000
  O2          0.87047      0.92695      0.09094  1.0000
  O2          0.05886      0.92022      0.42332  1.0000
  O2          0.89767      0.19989      0.98290  1.0000
  O2          0.79264      0.67611      0.31819  1.0000
  O2          0.29777      0.07859      0.64968  1.0000
  O2          0.08877      0.77741      0.48351  1.0000
  O2          0.20744      0.28629      0.81756  1.0000
  O2          0.70296      0.90579      0.15159  1.0000
  O2          0.18317      0.87257      0.36071  1.0000
  O2          0.70128      0.80669      0.02715  1.0000
  O2          0.09350      0.28342      0.69115  1.0000
  O2          0.79891      0.08548      0.85582  1.0000
  O2          0.29295      0.18388      0.52427  1.0000
  O2          0.90453      0.69732      0.18871  1.0000
  O2          0.32808      0.64553      0.25386  1.0000
  O2          0.34843      0.65885      0.58692  1.0000
  O2          0.32800      0.66288      0.92080  1.0000
  O2          0.67630      0.33610      0.75110  1.0000
  O2          0.65133      0.32648      0.08562  1.0000
  O2          0.66529      0.30153      0.42206  1.0000
  O3          0.36238      0.30659      0.97799  1.0000
  O3          0.68235      0.03392      0.31211  1.0000
  O2          0.95197      0.60870      0.64121  1.0000
  O2          0.61753      0.65223      0.47556  1.0000
  O2          0.33164      0.94110      0.80774  1.0000
  O2          0.04730      0.37425      0.14145  1.0000
  O2          0.32318      0.35626      0.36679  1.0000
  O2          0.04747      0.67024      0.03231  1.0000
  O2          0.62230      0.93447      0.69967  1.0000
  O2          0.67628      0.61259      0.86904  1.0000
  O2          0.94833      0.31098      0.53330  1.0000
  O2          0.37660      0.04748      0.20323  1.0000
  O2          0.77160      0.30008      0.01469  1.0000
  O2          0.69065      0.44808      0.35022  1.0000
  O2          0.52859      0.20994      0.67984  1.0000
  O2          0.22210      0.67884      0.51463  1.0000
  O2          0.30970      0.51847      0.85044  1.0000
  O2          0.47066      0.77439      0.18365  1.0000
  O2          0.29888      0.75722      0.32634  1.0000
  O2          0.47018      0.69090      0.99311  1.0000
  O2          0.22394      0.51394      0.65982  1.0000
  O2          0.69536      0.21339      0.82493  1.0000
  O2          0.52409      0.28588      0.49459  1.0000
  O2          0.77698      0.46571      0.15890  1.0000
  O2          0.79068      0.53252      0.02873  1.0000
  O2          0.45887      0.23422      0.36497  1.0000
  O2          0.74390      0.19295      0.69630  1.0000
  O2          0.20690      0.44697      0.53222  1.0000
  O2          0.53588      0.72681      0.86986  1.0000
  O2          0.26347      0.79250      0.20361  1.0000
  O2          0.53067      0.77948      0.30948  1.0000
  O2          0.26009      0.45885      0.97588  1.0000
  O2          0.21116      0.73323      0.64220  1.0000
  O2          0.46510      0.20130      0.80725  1.0000
  O2          0.74097      0.51583      0.47676  1.0000
  O2          0.78712      0.24816      0.14072  1.0000
  O2          0.23942      0.31291      0.90326  1.0000
  O2          0.67517      0.90585      0.23713  1.0000
  O2          0.08481      0.75018      0.56828  1.0000
  O2          0.76019      0.65979      0.40302  1.0000
  O2          0.32092      0.07294      0.73437  1.0000
  O2          0.91379      0.23108      0.06812  1.0000
  O2          0.31676      0.21279      0.43935  1.0000
  O2          0.90908      0.67405      0.10405  1.0000
  O2          0.76718      0.07481      0.77123  1.0000
  O2          0.68027      0.75159      0.94209  1.0000
  O2          0.08428      0.30376      0.60599  1.0000
  O2          0.23914      0.91078      0.27604  1.0000
  O3          0.59989      0.56374      0.00381  1.0000
  O3          0.42550      0.01380      0.33829  1.0000
  O2          0.96515      0.39289      0.66130  1.0000
  O2          0.40070      0.42228      0.49476  1.0000
  O2          0.56100      0.95295      0.82697  1.0000
  O2          0.03707      0.59366      0.15997  1.0000
  O2          0.55352      0.57071      0.34688  1.0000
  O2          0.03082      0.43884      0.01230  1.0000
  O2          0.40934      0.95153      0.67949  1.0000
  O2          0.44686      0.40127      0.84883  1.0000
  O2          0.96401      0.53974      0.51301  1.0000
  O2          0.58756      0.02936      0.18346  1.0000
  O3          0.58923      0.18162      0.25194  1.0000
  O2          0.82834      0.39918      0.58676  1.0000
  O3          0.59835      0.39823      0.91682  1.0000
  O2          0.41471      0.81488      0.75346  1.0000
  O2          0.17193      0.58285      0.08624  1.0000
  O2          0.40989      0.56763      0.42024  1.0000
  F           0.47525      0.94133      0.26481  1.0000
  F           0.08856      0.52975      0.58825  1.0000
  F           0.47471      0.51426      0.93060  1.0000
  F           0.54444      0.07537      0.75403  1.0000
  F           0.91761      0.45567      0.08730  1.0000
  F           0.53695      0.43825      0.42234  1.0000
