data_cif

_audit_creation_method             'generated by GULP'

_symmetry_space_group_name_H-M     'P 1'
_symmetry_Int_Tables_number        1
_symmetry_cell_setting             triclinic

_cell_length_a                       11.9490
_cell_length_b                       12.0082
_cell_length_c                       29.4411
_cell_angle_alpha                   90.0822
_cell_angle_beta                    90.2722
_cell_angle_gamma                  120.1174

loop_
_atom_site_label
_atom_site_fract_x
_atom_site_fract_y
_atom_site_fract_z
_atom_site_occupancy
  Ge          0.69960      0.37570      0.03389  1.0000
  Si          0.60426      0.31046      0.36551  1.0000
  Si          0.66036      0.28584      0.69843  1.0000
  Si          0.27290      0.60614      0.53014  1.0000
  Si          0.36343      0.66325      0.86226  1.0000
  Si          0.29943      0.69306      0.19651  1.0000
  Si          0.35516      0.68372      0.29644  1.0000
  Si          0.30795      0.61054      0.96247  1.0000
  Si          0.27980      0.66489      0.63076  1.0000
  Si          0.60629      0.28466      0.79919  1.0000
  Si          0.65259      0.36410      0.46664  1.0000
  Si          0.66824      0.30621      0.13223  1.0000
  Si          0.52016      0.40844      0.96670  1.0000
  Si          0.56301      0.09734      0.30190  1.0000
  Si          0.86917      0.45887      0.63352  1.0000
  Si          0.44263      0.56653      0.46428  1.0000
  Si          0.40133      0.87341      0.79769  1.0000
  Si          0.09111      0.52094      0.12899  1.0000
  Si          0.39726      0.51646      0.36218  1.0000
  Si          0.09358      0.57383      0.02581  1.0000
  Si          0.45367      0.87581      0.69584  1.0000
  Si          0.56956      0.45842      0.86397  1.0000
  Si          0.86393      0.40351      0.53181  1.0000
  Si          0.50690      0.10032      0.20057  1.0000
  Si          0.28808      0.38668      0.84829  1.0000
  Si          0.57923      0.89436      0.18229  1.0000
  Si          0.07156      0.68321      0.51625  1.0000
  Si          0.67882      0.58679      0.35051  1.0000
  Si          0.38222      0.08435      0.68270  1.0000
  Si          0.88095      0.28604      0.01039  1.0000
  Si          0.37220      0.28592      0.47826  1.0000
  Si          0.87564      0.59100      0.14199  1.0000
  Si          0.68298      0.08317      0.81287  1.0000
  Si          0.58646      0.68916      0.97813  1.0000
  Si          0.07917      0.38722      0.64673  1.0000
  Si          0.28215      0.88513      0.31513  1.0000
  Si          0.24014      0.33194      0.94886  1.0000
  Si          0.63604      0.89502      0.28304  1.0000
  Si          0.06982      0.73699      0.61705  1.0000
  Si          0.72285      0.64343      0.45163  1.0000
  Si          0.32458      0.07501      0.78334  1.0000
  Si          0.88601      0.23953      0.11383  1.0000
  Si          0.32282      0.23968      0.37698  1.0000
  Si          0.89209      0.65768      0.03964  1.0000
  Si          0.73274      0.07774      0.71203  1.0000
  Si          0.64491      0.73656      0.87742  1.0000
  Si          0.06545      0.32597      0.54598  1.0000
  Si          0.22678      0.89940      0.21509  1.0000
  Si          0.96189      0.11292      0.96268  1.0000
  Si          0.85224      0.83099      0.29717  1.0000
  Si          0.13339      0.01732      0.63197  1.0000
  Si          0.00061      0.86239      0.46700  1.0000
  Si          0.10745      0.13784      0.79761  1.0000
  Si          0.82749      0.96271      0.13102  1.0000
  Ge          0.10064      0.95583      0.36407  1.0000
  Si          0.83463      0.87556      0.02947  1.0000
  Si          0.01305      0.13989      0.69680  1.0000
  Si          0.86425      0.01467      0.86255  1.0000
  Si          0.12646      0.10788      0.53108  1.0000
  Si          0.94617      0.83758      0.19585  1.0000
  O2          0.91531      0.99903      0.99859  1.0000
  O3          0.97725      0.91812      0.32633  1.0000
  O2          0.05316      0.05932      0.66404  1.0000
  O2          0.04312      0.98354      0.50000  1.0000
  O2          0.98460      0.05743      0.82943  1.0000
  O2          0.90946      0.92309      0.16388  1.0000
  O2          0.31900      0.56066      0.32837  1.0000
  O2          0.40486      0.75105      0.66288  1.0000
  O2          0.22096      0.64816      0.99470  1.0000
  O2          0.64536      0.40728      0.83209  1.0000
  O2          0.55861      0.22879      0.17022  1.0000
  O2          0.73575      0.32569      0.50012  1.0000
  O3          0.56312      0.33289      0.99891  1.0000
  O2          0.74500      0.41018      0.66639  1.0000
  O2          0.64255      0.22276      0.33430  1.0000
  O2          0.39376      0.64297      0.49646  1.0000
  O2          0.21513      0.57251      0.16226  1.0000
  O2          0.32451      0.74725      0.82934  1.0000
  O2          0.11579      0.20321      0.96878  1.0000
  O2          0.75980      0.89186      0.30344  1.0000
  O2          0.07025      0.86332      0.63694  1.0000
  O2          0.84647      0.76941      0.47334  1.0000
  O2          0.19769      0.07398      0.80327  1.0000
  O2          0.88902      0.11687      0.13538  1.0000
  O3          0.19947      0.11804      0.35517  1.0000
  O2          0.90825      0.79472      0.02436  1.0000
  O2          0.85858      0.07764      0.69157  1.0000
  O2          0.77218      0.86104      0.85698  1.0000
  O2          0.06298      0.19851      0.52608  1.0000
  O2          0.10154      0.90218      0.19493  1.0000
  O2          0.89362      0.83670      0.24535  1.0000
  O2          0.12072      0.05876      0.58165  1.0000
  O2          0.92100      0.05197      0.91302  1.0000
  O2          0.05468      0.12582      0.74694  1.0000
  O2          0.83999      0.92263      0.08068  1.0000
  O3          0.03425      0.91738      0.41694  1.0000
  O2          0.89422      0.19708      0.97225  1.0000
  O2          0.77779      0.68167      0.31221  1.0000
  O2          0.28533      0.08667      0.64423  1.0000
  O2          0.07183      0.78085      0.47783  1.0000
  O2          0.19009      0.28895      0.80976  1.0000
  O2          0.67577      0.89396      0.14369  1.0000
  O3          0.18737      0.87902      0.35475  1.0000
  O2          0.68373      0.78982      0.01635  1.0000
  O2          0.08285      0.29145      0.68487  1.0000
  O2          0.78151      0.08417      0.85139  1.0000
  O2          0.27631      0.18861      0.51658  1.0000
  O2          0.87940      0.68916      0.18037  1.0000
  O2          0.29912      0.62970      0.24551  1.0000
  O2          0.33448      0.66461      0.58004  1.0000
  O2          0.30442      0.66521      0.91208  1.0000
  O2          0.66193      0.34238      0.74892  1.0000
  O3          0.60467      0.29866      0.08430  1.0000
  O2          0.65793      0.30964      0.41637  1.0000
  O2          0.36213      0.32316      0.96714  1.0000
  O2          0.64896      0.02704      0.30287  1.0000
  O2          0.93820      0.61496      0.63600  1.0000
  O2          0.59910      0.65304      0.46826  1.0000
  O2          0.31408      0.94231      0.80097  1.0000
  O2          0.01807      0.36541      0.13112  1.0000
  O2          0.31187      0.36121      0.35895  1.0000
  O2          0.02571      0.66155      0.02483  1.0000
  O2          0.61042      0.94558      0.69298  1.0000
  O2          0.65501      0.61427      0.85951  1.0000
  O2          0.93203      0.31575      0.52806  1.0000
  O2          0.35005      0.03121      0.19691  1.0000
  O3          0.74769      0.27928      0.00182  1.0000
  O2          0.67982      0.45331      0.34316  1.0000
  O2          0.51686      0.21811      0.67549  1.0000
  O2          0.20454      0.68130      0.50786  1.0000
  O2          0.28902      0.52038      0.83934  1.0000
  O2          0.44222      0.76322      0.17367  1.0000
  O2          0.27964      0.74967      0.31948  1.0000
  O2          0.45162      0.68932      0.98516  1.0000
  O2          0.21339      0.52223      0.65322  1.0000
  O2          0.68193      0.21611      0.82091  1.0000
  O2          0.50730      0.28847      0.48721  1.0000
  O2          0.74445      0.45610      0.15050  1.0000
  O3          0.76815      0.54326      0.01731  1.0000
  O2          0.44859      0.23683      0.35866  1.0000
  O2          0.73509      0.20483      0.69293  1.0000
  O2          0.19134      0.45013      0.52565  1.0000
  O2          0.52016      0.73905      0.85743  1.0000
  O2          0.22162      0.77177      0.19443  1.0000
  O2          0.51098      0.76726      0.30140  1.0000
  O2          0.23421      0.45505      0.96848  1.0000
  O2          0.19737      0.73826      0.63588  1.0000
  O2          0.44989      0.20101      0.80356  1.0000
  O2          0.72422      0.51943      0.47173  1.0000
  O2          0.76212      0.24297      0.13298  1.0000
  O2          0.21660      0.31369      0.89454  1.0000
  O2          0.65312      0.89599      0.22861  1.0000
  O2          0.06909      0.75441      0.56263  1.0000
  O2          0.74787      0.66136      0.39735  1.0000
  O2          0.30699      0.07844      0.72898  1.0000
  O2          0.88573      0.22434      0.05950  1.0000
  O2          0.30053      0.21454      0.43130  1.0000
  O2          0.87826      0.65934      0.09487  1.0000
  O2          0.75296      0.07930      0.76637  1.0000
  O2          0.66229      0.75765      0.93179  1.0000
  O2          0.07086      0.31101      0.60028  1.0000
  O2          0.20944      0.89673      0.26974  1.0000
  O2          0.57064      0.55107      0.98841  1.0000
  O2          0.42250      0.00963      0.32496  1.0000
  O2          0.95510      0.40306      0.65611  1.0000
  O2          0.38356      0.42419      0.48611  1.0000
  O2          0.54311      0.95784      0.82099  1.0000
  O2          0.99945      0.57272      0.14805  1.0000
  O2          0.54039      0.57492      0.34048  1.0000
  O2          0.00195      0.43221      0.00487  1.0000
  O2          0.39558      0.95927      0.67298  1.0000
  O2          0.42750      0.39937      0.84065  1.0000
  O2          0.94545      0.54352      0.50783  1.0000
  O2          0.56613      0.02062      0.17554  1.0000
  O2          0.55998      0.15103      0.25159  1.0000
  O2          0.81335      0.40450      0.58284  1.0000
  O2          0.57240      0.41174      0.91515  1.0000
  O2          0.40097      0.82186      0.74649  1.0000
  O2          0.13822      0.56833      0.07771  1.0000
  O2          0.39348      0.56907      0.41280  1.0000
  F           0.42640      0.88952      0.24810  1.0000
  F           0.07518      0.53515      0.58066  1.0000
  F           0.43423      0.54106      0.91273  1.0000
  F           0.53231      0.08352      0.74705  1.0000
  F           0.84503      0.43038      0.07017  1.0000
  F           0.52546      0.43695      0.41371  1.0000
