data_cif

_audit_creation_method             'generated by GULP'

_symmetry_space_group_name_H-M     'P 1'
_symmetry_Int_Tables_number        1
_symmetry_cell_setting             triclinic

_cell_length_a                       11.9542
_cell_length_b                       12.0223
_cell_length_c                       29.4367
_cell_angle_alpha                   90.0076
_cell_angle_beta                    90.4299
_cell_angle_gamma                  120.2675

loop_
_atom_site_label
_atom_site_fract_x
_atom_site_fract_y
_atom_site_fract_z
_atom_site_occupancy
  Ge          0.69960      0.37570      0.03389  1.0000
  Si          0.59828      0.30643      0.36460  1.0000
  Si          0.65622      0.28757      0.69777  1.0000
  Si          0.27183      0.60285      0.52878  1.0000
  Si          0.36247      0.66171      0.86220  1.0000
  Si          0.30032      0.69127      0.19643  1.0000
  Si          0.35299      0.68279      0.29689  1.0000
  Si          0.30704      0.60907      0.96245  1.0000
  Si          0.27955      0.66540      0.62892  1.0000
  Si          0.60749      0.28558      0.79904  1.0000
  Si          0.65282      0.36426      0.46537  1.0000
  Si          0.66900      0.30593      0.13213  1.0000
  Si          0.51951      0.40744      0.96646  1.0000
  Si          0.56059      0.09353      0.30161  1.0000
  Si          0.86552      0.45677      0.63243  1.0000
  Si          0.44268      0.56552      0.46281  1.0000
  Si          0.40094      0.87234      0.79752  1.0000
  Si          0.09109      0.52011      0.12928  1.0000
  Si          0.39134      0.50949      0.36094  1.0000
  Si          0.09358      0.57363      0.02606  1.0000
  Si          0.44707      0.87497      0.69541  1.0000
  Si          0.56940      0.45783      0.86374  1.0000
  Si          0.86297      0.40032      0.53094  1.0000
  Si          0.50839      0.09850      0.20002  1.0000
  Si          0.28759      0.38564      0.84780  1.0000
  Si          0.58008      0.89210      0.18305  1.0000
  Si          0.07004      0.67985      0.51429  1.0000
  Si          0.67294      0.58183      0.34806  1.0000
  Si          0.37692      0.08463      0.68343  1.0000
  Si          0.88038      0.28569      0.01059  1.0000
  Si          0.37297      0.28664      0.47766  1.0000
  Si          0.87651      0.59083      0.14259  1.0000
  Si          0.68431      0.08389      0.81161  1.0000
  Si          0.58617      0.68807      0.97815  1.0000
  Si          0.07821      0.38956      0.64657  1.0000
  Si          0.27787      0.88355      0.31368  1.0000
  Si          0.23932      0.33073      0.94838  1.0000
  Si          0.63603      0.89272      0.28400  1.0000
  Si          0.06786      0.73373      0.61493  1.0000
  Si          0.72264      0.64322      0.44881  1.0000
  Si          0.32529      0.07490      0.78459  1.0000
  Si          0.88578      0.23846      0.11391  1.0000
  Si          0.31573      0.23254      0.37691  1.0000
  Si          0.89287      0.65782      0.04016  1.0000
  Si          0.72623      0.07840      0.71035  1.0000
  Si          0.64404      0.73551      0.87743  1.0000
  Si          0.06375      0.32223      0.54635  1.0000
  Si          0.22770      0.89722      0.21303  1.0000
  Si          0.96042      0.11212      0.96311  1.0000
  Si          0.85273      0.82856      0.29745  1.0000
  Si          0.12974      0.01247      0.62987  1.0000
  Si          0.00338      0.86154      0.46388  1.0000
  Si          0.10783      0.13438      0.79872  1.0000
  Si          0.82773      0.96174      0.13145  1.0000
  Si          0.09795      0.95146      0.36296  1.0000
  Si          0.83460      0.87482      0.02989  1.0000
  Ge          0.00947      0.13810      0.69593  1.0000
  Si          0.86322      0.01380      0.86285  1.0000
  Si          0.12647      0.10542      0.52907  1.0000
  Si          0.94777      0.83763      0.19606  1.0000
  O2          0.91533      0.99934      0.99945  1.0000
  O2          0.97695      0.90821      0.32941  1.0000
  O3          0.04232      0.04864      0.65889  1.0000
  O2          0.04550      0.98458      0.49578  1.0000
  O2          0.98596      0.05666      0.83126  1.0000
  O2          0.90978      0.92277      0.16455  1.0000
  O2          0.31423      0.55748      0.32806  1.0000
  O2          0.40266      0.75260      0.66173  1.0000
  O2          0.22090      0.64702      0.99484  1.0000
  O2          0.64651      0.40797      0.83208  1.0000
  O2          0.55980      0.22748      0.17006  1.0000
  O2          0.73521      0.32444      0.49869  1.0000
  O3          0.56306      0.33242      0.99869  1.0000
  O2          0.74110      0.41065      0.66508  1.0000
  O2          0.63773      0.21891      0.33410  1.0000
  O2          0.39226      0.64059      0.49486  1.0000
  O2          0.21551      0.56999      0.16241  1.0000
  O2          0.32448      0.74651      0.82935  1.0000
  O2          0.11481      0.20199      0.96829  1.0000
  O2          0.76201      0.89126      0.30400  1.0000
  O2          0.06978      0.85928      0.63527  1.0000
  O2          0.84851      0.77113      0.46890  1.0000
  O2          0.20050      0.07382      0.80625  1.0000
  O2          0.88884      0.11590      0.13548  1.0000
  O2          0.18959      0.10503      0.35667  1.0000
  O2          0.90875      0.79470      0.02485  1.0000
  O3          0.84605      0.07519      0.68825  1.0000
  O2          0.77066      0.86032      0.85681  1.0000
  O2          0.06095      0.19460      0.52655  1.0000
  O2          0.10270      0.90053      0.19285  1.0000
  O2          0.90195      0.84198      0.24641  1.0000
  O2          0.12176      0.05036      0.57842  1.0000
  O2          0.91554      0.04934      0.91389  1.0000
  O3          0.05302      0.11178      0.74837  1.0000
  O2          0.83940      0.92078      0.08121  1.0000
  O2          0.04379      0.91388      0.41330  1.0000
  O2          0.89375      0.19693      0.97255  1.0000
  O2          0.77112      0.67725      0.30945  1.0000
  O2          0.28022      0.08805      0.64519  1.0000
  O2          0.07109      0.77801      0.47603  1.0000
  O2          0.18960      0.28739      0.80907  1.0000
  O2          0.67640      0.89191      0.14449  1.0000
  O2          0.17993      0.88129      0.35210  1.0000
  O2          0.68368      0.78868      0.01645  1.0000
  O3          0.08630      0.30108      0.68586  1.0000
  O2          0.78302      0.08474      0.85006  1.0000
  O2          0.27709      0.19002      0.51601  1.0000
  O2          0.87894      0.68832      0.18112  1.0000
  O2          0.29770      0.62893      0.24585  1.0000
  O2          0.33448      0.66442      0.57838  1.0000
  O2          0.30328      0.66339      0.91197  1.0000
  O2          0.66070      0.34395      0.74856  1.0000
  O3          0.60483      0.29848      0.08425  1.0000
  O2          0.65497      0.30820      0.41517  1.0000
  O2          0.36131      0.32201      0.96681  1.0000
  O2          0.64747      0.02428      0.30353  1.0000
  O2          0.93565      0.61279      0.63406  1.0000
  O2          0.59962      0.65341      0.46608  1.0000
  O2          0.31513      0.94215      0.80167  1.0000
  O2          0.01800      0.36458      0.13112  1.0000
  O2          0.30440      0.35322      0.35776  1.0000
  O2          0.02598      0.66143      0.02493  1.0000
  O2          0.60298      0.94552      0.69250  1.0000
  O2          0.65465      0.61382      0.85946  1.0000
  O2          0.93063      0.31224      0.52778  1.0000
  O2          0.35162      0.02933      0.19548  1.0000
  O3          0.74731      0.27925      0.00186  1.0000
  O2          0.67308      0.44803      0.34115  1.0000
  O2          0.51121      0.21906      0.67589  1.0000
  O2          0.20215      0.67633      0.50627  1.0000
  O2          0.28799      0.51907      0.83895  1.0000
  O2          0.44361      0.76028      0.17402  1.0000
  O2          0.27681      0.74898      0.31955  1.0000
  O2          0.45118      0.68781      0.98504  1.0000
  O2          0.21358      0.52393      0.65172  1.0000
  O2          0.68356      0.21680      0.82013  1.0000
  O2          0.50800      0.28921      0.48639  1.0000
  O2          0.74493      0.45564      0.15061  1.0000
  O3          0.76815      0.54354      0.01787  1.0000
  O2          0.44169      0.23116      0.35827  1.0000
  O2          0.72961      0.20627      0.69160  1.0000
  O2          0.19055      0.44638      0.52608  1.0000
  O2          0.51923      0.73793      0.85747  1.0000
  O2          0.22333      0.77034      0.19240  1.0000
  O2          0.50948      0.76585      0.30251  1.0000
  O2          0.23331      0.45350      0.96812  1.0000
  O2          0.19645      0.73735      0.63360  1.0000
  O2          0.45147      0.20131      0.80424  1.0000
  O2          0.72480      0.52010      0.46954  1.0000
  O2          0.76222      0.24227      0.13295  1.0000
  O2          0.21589      0.31235      0.89402  1.0000
  O2          0.65346      0.89322      0.22959  1.0000
  O2          0.06695      0.75066      0.56052  1.0000
  O2          0.74318      0.65844      0.39444  1.0000
  O2          0.30428      0.07952      0.73030  1.0000
  O2          0.88496      0.22332      0.05958  1.0000
  O2          0.29805      0.21468      0.43120  1.0000
  O2          0.88047      0.65985      0.09545  1.0000
  O2          0.75418      0.08305      0.76469  1.0000
  O2          0.66184      0.75661      0.93182  1.0000
  O2          0.06701      0.30712      0.60097  1.0000
  O2          0.20860      0.89242      0.26738  1.0000
  O2          0.57014      0.54994      0.98825  1.0000
  O2          0.41887      0.00652      0.32397  1.0000
  O2          0.95257      0.40317      0.65566  1.0000
  O2          0.38574      0.42508      0.48582  1.0000
  O2          0.54491      0.95700      0.81949  1.0000
  O2          0.99980      0.57171      0.14877  1.0000
  O2          0.53311      0.56717      0.33817  1.0000
  O2          0.00171      0.43193      0.00514  1.0000
  O2          0.38781      0.95847      0.67353  1.0000
  O2          0.42733      0.39904      0.84016  1.0000
  O2          0.94395      0.53970      0.50644  1.0000
  O2          0.56818      0.01878      0.17567  1.0000
  O2          0.55991      0.14802      0.25125  1.0000
  O2          0.81066      0.40095      0.58171  1.0000
  O2          0.57174      0.41088      0.91494  1.0000
  O2          0.39561      0.81992      0.74609  1.0000
  O2          0.13803      0.56847      0.07806  1.0000
  O2          0.39008      0.56358      0.41149  1.0000
  F           0.42703      0.88658      0.24748  1.0000
  F           0.07268      0.53076      0.57987  1.0000
  F           0.43329      0.53961      0.91234  1.0000
  F           0.53052      0.08400      0.74683  1.0000
  F           0.84537      0.43017      0.07029  1.0000
  F           0.52262      0.43469      0.41226  1.0000
