data_cif

_audit_creation_method             'generated by GULP'

_symmetry_space_group_name_H-M     'P 1'
_symmetry_Int_Tables_number        1
_symmetry_cell_setting             triclinic

_cell_length_a                       11.9494
_cell_length_b                       12.0250
_cell_length_c                       29.4550
_cell_angle_alpha                   90.2278
_cell_angle_beta                    90.2617
_cell_angle_gamma                  120.2858

loop_
_atom_site_label
_atom_site_fract_x
_atom_site_fract_y
_atom_site_fract_z
_atom_site_occupancy
  Ge          0.69960      0.37570      0.03389  1.0000
  Si          0.59967      0.30805      0.36575  1.0000
  Si          0.66030      0.28653      0.69814  1.0000
  Si          0.27490      0.60742      0.53045  1.0000
  Si          0.36465      0.66619      0.86260  1.0000
  Si          0.29867      0.69059      0.19864  1.0000
  Si          0.35631      0.68562      0.29862  1.0000
  Si          0.31027      0.61282      0.96281  1.0000
  Si          0.28002      0.66557      0.63103  1.0000
  Si          0.60727      0.28753      0.79886  1.0000
  Si          0.65427      0.36626      0.46647  1.0000
  Si          0.66653      0.30960      0.13239  1.0000
  Si          0.52275      0.41084      0.96634  1.0000
  Si          0.56391      0.09658      0.30201  1.0000
  Si          0.86915      0.45867      0.63311  1.0000
  Si          0.44526      0.56816      0.46512  1.0000
  Si          0.40119      0.87558      0.79800  1.0000
  Si          0.09158      0.52608      0.12987  1.0000
  Si          0.39310      0.51233      0.36331  1.0000
  Si          0.09615      0.57464      0.02684  1.0000
  Si          0.45311      0.87702      0.69620  1.0000
  Si          0.57140      0.46190      0.86366  1.0000
  Si          0.86578      0.40439      0.53142  1.0000
  Si          0.50950      0.10181      0.20065  1.0000
  Si          0.28938      0.38959      0.84806  1.0000
  Si          0.57684      0.89222      0.18324  1.0000
  Si          0.07381      0.68445      0.51642  1.0000
  Si          0.67441      0.58384      0.35026  1.0000
  Si          0.38129      0.08467      0.68256  1.0000
  Si          0.88147      0.28521      0.01191  1.0000
  Si          0.37483      0.28900      0.47979  1.0000
  Si          0.87482      0.59480      0.14179  1.0000
  Si          0.68345      0.08631      0.81269  1.0000
  Si          0.58906      0.69140      0.97831  1.0000
  Si          0.07928      0.38768      0.64638  1.0000
  Si          0.28162      0.88734      0.31579  1.0000
  Si          0.24261      0.33482      0.94854  1.0000
  Si          0.63931      0.89571      0.28356  1.0000
  Si          0.07008      0.73721      0.61718  1.0000
  Si          0.72520      0.64555      0.45083  1.0000
  Si          0.32493      0.07692      0.78325  1.0000
  Si          0.88469      0.24374      0.11537  1.0000
  Si          0.31740      0.23543      0.37900  1.0000
  Si          0.89323      0.65743      0.03903  1.0000
  Si          0.73298      0.07928      0.71199  1.0000
  Si          0.64654      0.73978      0.87765  1.0000
  Si          0.06683      0.32658      0.54564  1.0000
  Si          0.23005      0.89889      0.21537  1.0000
  Si          0.96429      0.11529      0.96218  1.0000
  Si          0.85491      0.82987      0.29933  1.0000
  Si          0.13221      0.01681      0.63155  1.0000
  Si          0.00606      0.86418      0.46586  1.0000
  Si          0.10851      0.14048      0.79708  1.0000
  Ge          0.82905      0.96444      0.13206  1.0000
  Si          0.10000      0.95423      0.36498  1.0000
  Si          0.84033      0.87677      0.02815  1.0000
  Si          0.01328      0.14078      0.69632  1.0000
  Si          0.86530      0.01856      0.86193  1.0000
  Si          0.12791      0.10864      0.53082  1.0000
  Si          0.95071      0.83937      0.19800  1.0000
  O2          0.91913      0.99771      0.99606  1.0000
  O2          0.97824      0.91031      0.33174  1.0000
  O2          0.05205      0.05977      0.66323  1.0000
  O2          0.04771      0.98669      0.49801  1.0000
  O2          0.98424      0.05995      0.82825  1.0000
  O3          0.91895      0.93070      0.16909  1.0000
  O2          0.31765      0.56177      0.33040  1.0000
  O2          0.40471      0.75186      0.66342  1.0000
  O2          0.22280      0.64890      0.99537  1.0000
  O2          0.64679      0.41084      0.83155  1.0000
  O2          0.55805      0.23028      0.17062  1.0000
  O2          0.73797      0.32758      0.49938  1.0000
  O3          0.56428      0.33379      0.99823  1.0000
  O2          0.74466      0.41007      0.66582  1.0000
  O2          0.64021      0.22204      0.33469  1.0000
  O2          0.39679      0.64527      0.49712  1.0000
  O2          0.21244      0.57073      0.16428  1.0000
  O2          0.32520      0.74990      0.82990  1.0000
  O2          0.11816      0.20657      0.96864  1.0000
  O2          0.76534      0.89467      0.30363  1.0000
  O2          0.06965      0.86306      0.63712  1.0000
  O2          0.85124      0.77319      0.47099  1.0000
  O2          0.19842      0.07664      0.80320  1.0000
  O3          0.89043      0.12765      0.13880  1.0000
  O2          0.19090      0.10791      0.35882  1.0000
  O2          0.91087      0.79329      0.02210  1.0000
  O2          0.85848      0.07843      0.69160  1.0000
  O2          0.77340      0.86461      0.85715  1.0000
  O2          0.06409      0.19880      0.52591  1.0000
  O2          0.10514      0.89988      0.19490  1.0000
  O2          0.90527      0.83770      0.24893  1.0000
  O2          0.11785      0.05504      0.58091  1.0000
  O2          0.92456      0.05943      0.91189  1.0000
  O2          0.05718      0.12798      0.74619  1.0000
  O3          0.85550      0.92769      0.07893  1.0000
  O2          0.04606      0.91635      0.41532  1.0000
  O2          0.89448      0.19604      0.97383  1.0000
  O2          0.77215      0.67934      0.31181  1.0000
  O2          0.28442      0.08681      0.64401  1.0000
  O2          0.07506      0.78227      0.47818  1.0000
  O2          0.19116      0.29172      0.80943  1.0000
  O3          0.66606      0.88713      0.14354  1.0000
  O2          0.18352      0.88537      0.35420  1.0000
  O2          0.68723      0.79166      0.01675  1.0000
  O2          0.08299      0.29214      0.68440  1.0000
  O2          0.78213      0.08746      0.85110  1.0000
  O2          0.27940      0.19207      0.51832  1.0000
  O2          0.87630      0.69216      0.18010  1.0000
  O2          0.29751      0.62941      0.24805  1.0000
  O2          0.33569      0.66566      0.58050  1.0000
  O2          0.30633      0.66787      0.91260  1.0000
  O2          0.66268      0.34422      0.74852  1.0000
  O3          0.60314      0.30087      0.08429  1.0000
  O2          0.65621      0.30980      0.41626  1.0000
  O2          0.36444      0.32574      0.96665  1.0000
  O2          0.65092      0.02740      0.30339  1.0000
  O2          0.93813      0.61473      0.63577  1.0000
  O2          0.60227      0.65589      0.46818  1.0000
  O2          0.31413      0.94454      0.80118  1.0000
  O2          0.01696      0.37146      0.13103  1.0000
  O2          0.30604      0.35602      0.35993  1.0000
  O2          0.02671      0.66041      0.02508  1.0000
  O2          0.61000      0.94673      0.69325  1.0000
  O2          0.65680      0.61786      0.85945  1.0000
  O2          0.93352      0.31653      0.52758  1.0000
  O2          0.35254      0.03103      0.19718  1.0000
  O3          0.74888      0.27952      0.00245  1.0000
  O2          0.67413      0.45003      0.34276  1.0000
  O2          0.51633      0.21836      0.67535  1.0000
  O2          0.20686      0.68258      0.50825  1.0000
  O2          0.29016      0.52321      0.83958  1.0000
  O2          0.44079      0.75913      0.17576  1.0000
  O2          0.28188      0.75351      0.32155  1.0000
  O2          0.45428      0.69164      0.98560  1.0000
  O2          0.21350      0.52289      0.65330  1.0000
  O2          0.68287      0.21939      0.82070  1.0000
  O2          0.50983      0.29104      0.48789  1.0000
  O2          0.74297      0.45995      0.15034  1.0000
  O3          0.76900      0.54246      0.01680  1.0000
  O2          0.44286      0.23328      0.35997  1.0000
  O2          0.73512      0.20580      0.69272  1.0000
  O2          0.19305      0.45127      0.52558  1.0000
  O2          0.52155      0.74216      0.85786  1.0000
  O2          0.22303      0.77049      0.19520  1.0000
  O2          0.51329      0.76830      0.30226  1.0000
  O2          0.23645      0.45741      0.96844  1.0000
  O2          0.19753      0.73869      0.63619  1.0000
  O2          0.45065      0.20358      0.80326  1.0000
  O2          0.72682      0.52201      0.47111  1.0000
  O2          0.75986      0.24680      0.13368  1.0000
  O2          0.21831      0.31642      0.89427  1.0000
  O2          0.65668      0.89717      0.22893  1.0000
  O2          0.07058      0.75513      0.56282  1.0000
  O2          0.74556      0.66056      0.39652  1.0000
  O2          0.30654      0.07908      0.72891  1.0000
  O2          0.88149      0.22146      0.06102  1.0000
  O2          0.29957      0.21760      0.43328  1.0000
  O2          0.87726      0.66165      0.09430  1.0000
  O2          0.75360      0.08207      0.76631  1.0000
  O2          0.66469      0.76063      0.93204  1.0000
  O2          0.07162      0.31166      0.59992  1.0000
  O2          0.21215      0.89598      0.26971  1.0000
  O2          0.57325      0.55335      0.98831  1.0000
  O2          0.42313      0.01042      0.32522  1.0000
  O2          0.95478      0.40280      0.65570  1.0000
  O2          0.38848      0.42784      0.48820  1.0000
  O2          0.54348      0.96085      0.82107  1.0000
  O2          0.99997      0.57896      0.14811  1.0000
  O2          0.53494      0.57006      0.34060  1.0000
  O2          0.00486      0.43077      0.00737  1.0000
  O2          0.39469      0.95964      0.67312  1.0000
  O2          0.42908      0.40293      0.84038  1.0000
  O2          0.94751      0.54468      0.50777  1.0000
  O2          0.56704      0.02032      0.17595  1.0000
  O2          0.56269      0.15130      0.25180  1.0000
  O2          0.81399      0.40443      0.58232  1.0000
  O2          0.57477      0.41502      0.91471  1.0000
  O2          0.40025      0.82349      0.74684  1.0000
  O2          0.14248      0.57483      0.07897  1.0000
  O2          0.39175      0.56582      0.41397  1.0000
  F           0.43063      0.88945      0.24853  1.0000
  F           0.07614      0.53553      0.58069  1.0000
  F           0.43651      0.54419      0.91291  1.0000
  F           0.53250      0.08523      0.74708  1.0000
  F           0.84448      0.43142      0.07078  1.0000
  F           0.52429      0.43693      0.41424  1.0000
