data_cif

_audit_creation_method             'generated by GULP'

_symmetry_space_group_name_H-M     'P 1'
_symmetry_Int_Tables_number        1
_symmetry_cell_setting             triclinic

_cell_length_a                       11.9512
_cell_length_b                       12.0048
_cell_length_c                       29.4360
_cell_angle_alpha                   90.0958
_cell_angle_beta                    90.4384
_cell_angle_gamma                  120.1159

loop_
_atom_site_label
_atom_site_fract_x
_atom_site_fract_y
_atom_site_fract_z
_atom_site_occupancy
  Ge          0.69960      0.37570      0.03389  1.0000
  Si          0.59587      0.30712      0.36488  1.0000
  Si          0.65924      0.28377      0.69721  1.0000
  Si          0.27299      0.60637      0.52943  1.0000
  Si          0.35520      0.66072      0.86227  1.0000
  Si          0.29798      0.69025      0.19703  1.0000
  Si          0.35153      0.68364      0.29758  1.0000
  Si          0.30692      0.61220      0.96307  1.0000
  Si          0.27893      0.66401      0.63025  1.0000
  Si          0.60332      0.28560      0.79743  1.0000
  Si          0.65158      0.36535      0.46547  1.0000
  Si          0.66720      0.30510      0.13202  1.0000
  Si          0.52066      0.40989      0.96642  1.0000
  Si          0.55821      0.09432      0.30161  1.0000
  Si          0.86742      0.45699      0.63202  1.0000
  Si          0.44288      0.56731      0.46393  1.0000
  Si          0.39712      0.87130      0.79740  1.0000
  Si          0.08901      0.51875      0.12980  1.0000
  Si          0.39002      0.51108      0.36208  1.0000
  Si          0.09301      0.57366      0.02664  1.0000
  Si          0.45260      0.87418      0.69580  1.0000
  Si          0.56279      0.45396      0.86346  1.0000
  Si          0.86377      0.40348      0.53026  1.0000
  Si          0.50568      0.09833      0.19998  1.0000
  Si          0.28113      0.38392      0.84938  1.0000
  Si          0.57706      0.89106      0.18354  1.0000
  Si          0.07141      0.68323      0.51542  1.0000
  Si          0.67126      0.58302      0.34875  1.0000
  Si          0.38043      0.08182      0.68079  1.0000
  Si          0.88068      0.28581      0.01022  1.0000
  Si          0.37244      0.28777      0.47882  1.0000
  Si          0.87444      0.59000      0.14298  1.0000
  Si          0.67763      0.08361      0.81334  1.0000
  Si          0.58682      0.69182      0.97699  1.0000
  Si          0.07778      0.38614      0.64511  1.0000
  Si          0.27618      0.88492      0.31397  1.0000
  Si          0.23978      0.33368      0.95031  1.0000
  Si          0.63398      0.89311      0.28442  1.0000
  Si          0.06827      0.73527      0.61628  1.0000
  Si          0.72244      0.64481      0.44948  1.0000
  Si          0.32322      0.07427      0.78135  1.0000
  Si          0.88404      0.23741      0.11366  1.0000
  Si          0.31393      0.23383      0.37798  1.0000
  Si          0.89172      0.65758      0.04059  1.0000
  Si          0.73168      0.07578      0.71307  1.0000
  Si          0.63601      0.73164      0.87576  1.0000
  Si          0.06515      0.32568      0.54435  1.0000
  Si          0.22564      0.89715      0.21327  1.0000
  Si          0.96441      0.11305      0.96465  1.0000
  Si          0.85114      0.82927      0.29813  1.0000
  Si          0.13065      0.01506      0.63036  1.0000
  Si          0.00305      0.86296      0.46457  1.0000
  Si          0.10684      0.13696      0.79630  1.0000
  Si          0.82454      0.95998      0.13212  1.0000
  Si          0.09632      0.95294      0.36362  1.0000
  Si          0.83423      0.87540      0.03053  1.0000
  Si          0.01218      0.13908      0.69545  1.0000
  Ge          0.86029      0.01254      0.86269  1.0000
  Si          0.12587      0.10727      0.52957  1.0000
  Si          0.94551      0.83684      0.19671  1.0000
  O2          0.91842      0.00358      0.00249  1.0000
  O2          0.97502      0.90957      0.33019  1.0000
  O2          0.05069      0.05828      0.66202  1.0000
  O2          0.04541      0.98581      0.49661  1.0000
  O3          0.98465      0.05071      0.82620  1.0000
  O2          0.90680      0.92235      0.16570  1.0000
  O2          0.31293      0.55914      0.32915  1.0000
  O2          0.40376      0.74929      0.66275  1.0000
  O2          0.22082      0.64945      0.99588  1.0000
  O2          0.64000      0.40685      0.83070  1.0000
  O2          0.55757      0.22685      0.16977  1.0000
  O2          0.73579      0.32671      0.49835  1.0000
  O3          0.56374      0.33446      0.99866  1.0000
  O2          0.74307      0.40684      0.66470  1.0000
  O2          0.63523      0.21994      0.33402  1.0000
  O2          0.39449      0.64434      0.49605  1.0000
  O2          0.21291      0.56839      0.16320  1.0000
  O2          0.31741      0.74543      0.82907  1.0000
  O2          0.11784      0.20642      0.97174  1.0000
  O2          0.76035      0.89225      0.30436  1.0000
  O2          0.06809      0.86133      0.63624  1.0000
  O2          0.84845      0.77237      0.46959  1.0000
  O2          0.19883      0.07529      0.80167  1.0000
  O2          0.88648      0.11439      0.13514  1.0000
  O2          0.18746      0.10665      0.35778  1.0000
  O2          0.90743      0.79424      0.02502  1.0000
  O2          0.85706      0.07527      0.69250  1.0000
  O3          0.75993      0.85051      0.85367  1.0000
  O2          0.06237      0.19793      0.52451  1.0000
  O2          0.10023      0.89973      0.19309  1.0000
  O2          0.90088      0.84131      0.24724  1.0000
  O2          0.11537      0.05299      0.57966  1.0000
  O3          0.92738      0.04622      0.91624  1.0000
  O2          0.05971      0.12945      0.74495  1.0000
  O2          0.83411      0.91452      0.08241  1.0000
  O2          0.04258      0.91467      0.41394  1.0000
  O2          0.89468      0.19708      0.97197  1.0000
  O2          0.76928      0.67813      0.31019  1.0000
  O2          0.28323      0.08414      0.64223  1.0000
  O2          0.07218      0.78102      0.47710  1.0000
  O2          0.18265      0.28679      0.81090  1.0000
  O2          0.67350      0.89100      0.14507  1.0000
  O2          0.17853      0.88305      0.35241  1.0000
  O2          0.68502      0.79315      0.01488  1.0000
  O2          0.08061      0.28996      0.68308  1.0000
  O3          0.77383      0.08945      0.85307  1.0000
  O2          0.27724      0.19063      0.51730  1.0000
  O2          0.87666      0.68751      0.18160  1.0000
  O2          0.29614      0.62892      0.24658  1.0000
  O2          0.33369      0.66400      0.57959  1.0000
  O2          0.29980      0.66477      0.91256  1.0000
  O2          0.65937      0.34261      0.74719  1.0000
  O3          0.60399      0.29815      0.08400  1.0000
  O2          0.65311      0.30858      0.41532  1.0000
  O2          0.36286      0.32579      0.96779  1.0000
  O2          0.64529      0.02509      0.30367  1.0000
  O2          0.93646      0.61310      0.63492  1.0000
  O2          0.59962      0.65505      0.46691  1.0000
  O2          0.31112      0.94143      0.79956  1.0000
  O2          0.01584      0.36315      0.13131  1.0000
  O2          0.30289      0.35486      0.35893  1.0000
  O2          0.02491      0.66118      0.02563  1.0000
  O2          0.60937      0.94374      0.69363  1.0000
  O2          0.64618      0.60889      0.85891  1.0000
  O2          0.93172      0.31561      0.52635  1.0000
  O2          0.34900      0.02907      0.19550  1.0000
  O3          0.74781      0.27985      0.00143  1.0000
  O2          0.67056      0.44873      0.34157  1.0000
  O2          0.51601      0.21462      0.67383  1.0000
  O2          0.20456      0.68167      0.50731  1.0000
  O2          0.28002      0.51669      0.84026  1.0000
  O2          0.44097      0.75902      0.17456  1.0000
  O2          0.27535      0.75037      0.31999  1.0000
  O2          0.45187      0.69136      0.98484  1.0000
  O2          0.21189      0.52093      0.65229  1.0000
  O2          0.67840      0.21777      0.81972  1.0000
  O2          0.50762      0.29014      0.48702  1.0000
  O2          0.74305      0.45478      0.15069  1.0000
  O3          0.76750      0.54352      0.01811  1.0000
  O2          0.43931      0.23192      0.35896  1.0000
  O2          0.73501      0.20336      0.69378  1.0000
  O2          0.19111      0.45032      0.52440  1.0000
  O2          0.51096      0.73500      0.85643  1.0000
  O2          0.22123      0.76975      0.19289  1.0000
  O2          0.50786      0.76664      0.30312  1.0000
  O2          0.23423      0.45715      0.96966  1.0000
  O2          0.19591      0.73679      0.63533  1.0000
  O2          0.44747      0.20152      0.80126  1.0000
  O2          0.72419      0.52118      0.46994  1.0000
  O2          0.76030      0.24108      0.13268  1.0000
  O2          0.21106      0.31245      0.89607  1.0000
  O2          0.65083      0.89253      0.23003  1.0000
  O2          0.06820      0.75361      0.56190  1.0000
  O2          0.74212      0.65961      0.39509  1.0000
  O2          0.30542      0.07625      0.72693  1.0000
  O2          0.88418      0.22302      0.05929  1.0000
  O2          0.29703      0.21624      0.43232  1.0000
  O2          0.87868      0.65927      0.09588  1.0000
  O2          0.75058      0.07611      0.76773  1.0000
  O2          0.65859      0.76021      0.93009  1.0000
  O2          0.07041      0.31035      0.59863  1.0000
  O2          0.20688      0.89345      0.26762  1.0000
  O2          0.57365      0.55452      0.98680  1.0000
  O2          0.41692      0.00795      0.32411  1.0000
  O2          0.95315      0.40083      0.65448  1.0000
  O2          0.38625      0.42690      0.48707  1.0000
  O2          0.53816      0.95700      0.82130  1.0000
  O2          0.99758      0.57051      0.14923  1.0000
  O2          0.53147      0.56871      0.33919  1.0000
  O2          0.00183      0.43226      0.00522  1.0000
  O2          0.39466      0.95686      0.67205  1.0000
  O2          0.41909      0.39400      0.84133  1.0000
  O2          0.94530      0.54378      0.50660  1.0000
  O2          0.56512      0.01777      0.17589  1.0000
  O2          0.55714      0.14840      0.25121  1.0000
  O2          0.81218      0.40351      0.58116  1.0000
  O2          0.56880      0.40847      0.91461  1.0000
  O2          0.39866      0.81984      0.74630  1.0000
  O2          0.13657      0.56742      0.07868  1.0000
  O2          0.38933      0.56513      0.41272  1.0000
  F           0.42504      0.88687      0.24783  1.0000
  F           0.07383      0.53398      0.57963  1.0000
  F           0.43041      0.54026      0.91264  1.0000
  F           0.53148      0.08168      0.74667  1.0000
  F           0.84456      0.42947      0.07042  1.0000
  F           0.52162      0.43563      0.41310  1.0000
