data_cif

_audit_creation_method             'generated by GULP'

_symmetry_space_group_name_H-M     'P 1'
_symmetry_Int_Tables_number        1
_symmetry_cell_setting             triclinic

_cell_length_a                       11.9866
_cell_length_b                       11.9129
_cell_length_c                       29.4812
_cell_angle_alpha                   89.2811
_cell_angle_beta                    90.3572
_cell_angle_gamma                  119.7969

loop_
_atom_site_label
_atom_site_fract_x
_atom_site_fract_y
_atom_site_fract_z
_atom_site_occupancy
  Si          0.69960      0.37570      0.03389  1.0000
  Si          0.62445      0.32743      0.37113  1.0000
  Si          0.67763      0.29086      0.69891  1.0000
  Si          0.29964      0.62157      0.53490  1.0000
  Si          0.38517      0.67113      0.86894  1.0000
  Si          0.32715      0.70417      0.19925  1.0000
  Si          0.38516      0.70906      0.30148  1.0000
  Si          0.32715      0.61800      0.97117  1.0000
  Si          0.29964      0.67310      0.63552  1.0000
  Si          0.62445      0.29205      0.79929  1.0000
  Si          0.67763      0.38180      0.47151  1.0000
  Si          0.69960      0.31892      0.13653  1.0000
  Ge          0.53134      0.42590      0.96643  1.0000
  Si          0.59578      0.12978      0.30309  1.0000
  Si          0.88991      0.46728      0.63586  1.0000
  Si          0.47307      0.58722      0.47020  1.0000
  Si          0.42306      0.88106      0.80160  1.0000
  Si          0.11361      0.52886      0.13568  1.0000
  Si          0.42306      0.53703      0.36882  1.0000
  Si          0.11361      0.57978      0.03474  1.0000
  Si          0.47307      0.88088      0.70022  1.0000
  Si          0.59578      0.46102      0.86733  1.0000
  Si          0.88991      0.41766      0.53456  1.0000
  Ge          0.53133      0.10046      0.20399  1.0000
  Si          0.30928      0.38877      0.85449  1.0000
  Si          0.60971      0.90578      0.18107  1.0000
  Si          0.09811      0.69870      0.52010  1.0000
  Si          0.70219      0.60733      0.35554  1.0000
  Si          0.40020      0.09027      0.68529  1.0000
  Si          0.90460      0.30079      0.02088  1.0000
  Si          0.40020      0.30496      0.48513  1.0000
  Si          0.90460      0.59884      0.14954  1.0000
  Si          0.70219      0.08989      0.81488  1.0000
  Si          0.60971      0.69896      0.98935  1.0000
  Si          0.09811      0.39444      0.65032  1.0000
  Si          0.30928      0.91554      0.31593  1.0000
  Si          0.25297      0.32917      0.95668  1.0000
  Si          0.66973      0.92302      0.28416  1.0000
  Si          0.09091      0.74614      0.62073  1.0000
  Si          0.75126      0.66461      0.45605  1.0000
  Si          0.34369      0.08240      0.78603  1.0000
  Si          0.91298      0.25103      0.12167  1.0000
  Si          0.34369      0.25632      0.38439  1.0000
  Si          0.91298      0.65698      0.04875  1.0000
  Si          0.75126      0.08168      0.71437  1.0000
  Si          0.66973      0.74174      0.88625  1.0000
  Si          0.09091      0.33980      0.54969  1.0000
  Si          0.25296      0.91882      0.21373  1.0000
  Si          0.96850      0.12088      0.96905  1.0000
  Si          0.88285      0.85319      0.30241  1.0000
  Si          0.15242      0.02569      0.63572  1.0000
  Si          0.03150      0.88096      0.46877  1.0000
  Si          0.12575      0.14373      0.80288  1.0000
  Si          0.85661      0.97060      0.13515  1.0000
  Si          0.12575      0.97705      0.36754  1.0000
  Si          0.85661      0.88104      0.03527  1.0000
  Si          0.03151      0.14558      0.70165  1.0000
  Si          0.88285      0.02469      0.86801  1.0000
  Si          0.15242      0.12176      0.53470  1.0000
  Si          0.96850      0.84265      0.20136  1.0000
  O2          0.93262      0.99787      0.00041  1.0000
  O2          0.00589      0.93717      0.33416  1.0000
  O2          0.07589      0.06749      0.66958  1.0000
  O2          0.07589      0.00343      0.50084  1.0000
  O2          0.00589      0.06375      0.83626  1.0000
  O2          0.93262      0.92978      0.17000  1.0000
  O2          0.34893      0.58836      0.33543  1.0000
  O2          0.42282      0.75531      0.66810  1.0000
  O2          0.23983      0.65535      0.00185  1.0000
  O2          0.66616      0.41895      0.82955  1.0000
  O3          0.58125      0.23779      0.16835  1.0000
  O2          0.76272      0.34122      0.50335  1.0000
  O3          0.58125      0.33848      0.00207  1.0000
  O2          0.76272      0.41653      0.66706  1.0000
  O2          0.66616      0.24224      0.34087  1.0000
  O2          0.42282      0.66254      0.50232  1.0000
  O2          0.23982      0.57950      0.16856  1.0000
  O2          0.34893      0.75559      0.83499  1.0000
  O2          0.12013      0.21143      0.97514  1.0000
  O2          0.79226      0.91767      0.30536  1.0000
  O2          0.08931      0.87105      0.64118  1.0000
  O2          0.87782      0.79144      0.47532  1.0000
  O2          0.21671      0.07950      0.80644  1.0000
  O2          0.91203      0.12314      0.14219  1.0000
  O2          0.21671      0.13224      0.36398  1.0000
  O2          0.91203      0.78391      0.02823  1.0000
  O2          0.87782      0.08142      0.69510  1.0000
  O2          0.79227      0.86962      0.86506  1.0000
  O2          0.08931      0.21329      0.52923  1.0000
  O2          0.12013      0.90373      0.19528  1.0000
  O2          0.93215      0.85553      0.25239  1.0000
  O2          0.13619      0.06561      0.58521  1.0000
  O2          0.93215      0.07165      0.91803  1.0000
  O2          0.07005      0.13362      0.75276  1.0000
  O2          0.88240      0.93871      0.08521  1.0000
  O2          0.07005      0.93146      0.41766  1.0000
  O2          0.89798      0.20066      0.98221  1.0000
  O2          0.80154      0.70341      0.31750  1.0000
  O2          0.30403      0.09345      0.64686  1.0000
  O2          0.10014      0.79764      0.48129  1.0000
  O2          0.21130      0.29482      0.81575  1.0000
  O2          0.70381      0.88963      0.14539  1.0000
  O2          0.21129      0.91150      0.35467  1.0000
  O2          0.70381      0.80921      0.02503  1.0000
  O2          0.10014      0.29753      0.68913  1.0000
  O2          0.80154      0.09316      0.85292  1.0000
  O2          0.30403      0.20561      0.52356  1.0000
  O2          0.89798      0.69235      0.18820  1.0000
  O2          0.33043      0.65662      0.25123  1.0000
  O2          0.35659      0.67581      0.58521  1.0000
  O2          0.33043      0.66884      0.91919  1.0000
  O2          0.67965      0.34763      0.74885  1.0000
  O2          0.65116      0.32309      0.08521  1.0000
  O2          0.67965      0.32705      0.42156  1.0000
  O3          0.36479      0.30971      0.97612  1.0000
  O2          0.67909      0.05407      0.30324  1.0000
  O2          0.95884      0.62374      0.63921  1.0000
  O2          0.62883      0.67544      0.47352  1.0000
  O2          0.33569      0.94999      0.80495  1.0000
  O2          0.04691      0.37228      0.14003  1.0000
  O2          0.33569      0.38073      0.36547  1.0000
  O2          0.04691      0.66966      0.03039  1.0000
  O2          0.62883      0.94841      0.69689  1.0000
  O2          0.67909      0.62004      0.86718  1.0000
  O2          0.95884      0.33013      0.53121  1.0000
  O3          0.36479      0.05010      0.19430  1.0000
  O2          0.77312      0.30296      0.01338  1.0000
  O2          0.69837      0.47118      0.34825  1.0000
  O2          0.53421      0.22369      0.67710  1.0000
  O2          0.23128      0.69770      0.51267  1.0000
  O2          0.31371      0.52627      0.84879  1.0000
  O2          0.47180      0.77174      0.17906  1.0000
  O2          0.31370      0.78246      0.32163  1.0000
  O2          0.47180      0.69510      0.99136  1.0000
  O2          0.23128      0.52861      0.65775  1.0000
  O2          0.69837      0.22221      0.82216  1.0000
  O2          0.53421      0.30555      0.49332  1.0000
  O2          0.77312      0.46518      0.15704  1.0000
  O2          0.78901      0.53282      0.02887  1.0000
  O2          0.46862      0.25361      0.36579  1.0000
  O2          0.75035      0.20726      0.69373  1.0000
  O2          0.21748      0.46528      0.53017  1.0000
  O2          0.53916      0.73477      0.86818  1.0000
  O2          0.26350      0.79529      0.19643  1.0000
  O2          0.53915      0.79942      0.30224  1.0000
  O2          0.26350      0.46324      0.97398  1.0000
  O2          0.21748      0.74723      0.64025  1.0000
  O2          0.46862      0.21004      0.80462  1.0000
  O2          0.75035      0.53812      0.47668  1.0000
  O2          0.78900      0.25121      0.14155  1.0000
  O2          0.24248      0.31855      0.90148  1.0000
  O2          0.68215      0.92086      0.23003  1.0000
  O2          0.09311      0.76781      0.56641  1.0000
  O2          0.77166      0.68093      0.40184  1.0000
  O2          0.32579      0.08472      0.73171  1.0000
  O2          0.91091      0.23036      0.06744  1.0000
  O2          0.32578      0.23609      0.43871  1.0000
  O2          0.91091      0.67558      0.10298  1.0000
  O2          0.77167      0.08577      0.76857  1.0000
  O2          0.68215      0.75632      0.94039  1.0000
  O2          0.09311      0.32033      0.60401  1.0000
  O2          0.24248      0.91896      0.26894  1.0000
  O3          0.60074      0.56656      0.00229  1.0000
  O2          0.45036      0.03700      0.32326  1.0000
  O2          0.97311      0.40859      0.65934  1.0000
  O2          0.41482      0.44509      0.49364  1.0000
  O2          0.56457      0.96218      0.82422  1.0000
  O2          0.03303      0.58935      0.15924  1.0000
  O2          0.56456      0.59741      0.34620  1.0000
  O2          0.03303      0.43871      0.01118  1.0000
  O2          0.41482      0.96476      0.67678  1.0000
  O2          0.45037      0.40840      0.84716  1.0000
  O2          0.97310      0.55955      0.51108  1.0000
  O3          0.60074      0.02920      0.16813  1.0000
  O3          0.60201      0.19310      0.25516  1.0000
  O2          0.83723      0.41613      0.58521  1.0000
  O3          0.60201      0.40394      0.91526  1.0000
  O2          0.42037      0.82615      0.75114  1.0000
  O2          0.17241      0.58372      0.08521  1.0000
  O2          0.42037      0.58925      0.41927  1.0000
  F           0.47804      0.95433      0.24151  1.0000
  F           0.09700      0.54601      0.58521  1.0000
  F           0.47805      0.51874      0.92891  1.0000
  F           0.54957      0.08677      0.75023  1.0000
  F           0.92164      0.45833      0.08521  1.0000
  F           0.54957      0.45783      0.42019  1.0000
