data_cif

_audit_creation_method             'generated by GULP'

_symmetry_space_group_name_H-M     'P 1'
_symmetry_Int_Tables_number        1
_symmetry_cell_setting             triclinic

_cell_length_a                       11.9526
_cell_length_b                       11.9273
_cell_length_c                       29.3948
_cell_angle_alpha                   90.1617
_cell_angle_beta                    89.7762
_cell_angle_gamma                  119.5569

loop_
_atom_site_label
_atom_site_fract_x
_atom_site_fract_y
_atom_site_fract_z
_atom_site_occupancy
  Si          0.69960      0.37570      0.03389  1.0000
  Si          0.62913      0.30894      0.36567  1.0000
  Si          0.68124      0.27837      0.69626  1.0000
  Si          0.30627      0.60439      0.53344  1.0000
  Si          0.38748      0.66566      0.86754  1.0000
  Si          0.33921      0.68576      0.20066  1.0000
  Si          0.39133      0.68844      0.30147  1.0000
  Si          0.33008      0.61451      0.97007  1.0000
  Si          0.30138      0.65726      0.63433  1.0000
  Si          0.62789      0.28401      0.79712  1.0000
  Si          0.68418      0.36203      0.46629  1.0000
  Si          0.69731      0.31182      0.13674  1.0000
  Ge          0.53508      0.42513      0.96474  1.0000
  Si          0.58828      0.09730      0.30037  1.0000
  Si          0.89263      0.45262      0.63236  1.0000
  Si          0.47998      0.56622      0.46880  1.0000
  Si          0.42613      0.87412      0.80072  1.0000
  Si          0.12607      0.52393      0.13824  1.0000
  Si          0.42722      0.51590      0.36701  1.0000
  Si          0.11896      0.58147      0.03526  1.0000
  Si          0.47545      0.86686      0.69903  1.0000
  Si          0.59958      0.45624      0.86520  1.0000
  Si          0.89510      0.40063      0.53056  1.0000
  Si          0.53111      0.09140      0.19893  1.0000
  Si          0.31228      0.38383      0.85262  1.0000
  Si          0.61357      0.88888      0.18548  1.0000
  Si          0.10453      0.68130      0.51761  1.0000
  Si          0.70857      0.58876      0.35164  1.0000
  Si          0.40341      0.07662      0.68367  1.0000
  Si          0.90586      0.29783      0.02005  1.0000
  Si          0.40725      0.28505      0.48246  1.0000
  Ge          0.90863      0.58045      0.14392  1.0000
  Si          0.70437      0.08220      0.81342  1.0000
  Si          0.61371      0.69813      0.98783  1.0000
  Si          0.10032      0.38002      0.64805  1.0000
  Si          0.30939      0.88754      0.31508  1.0000
  Si          0.25616      0.32665      0.95511  1.0000
  Si          0.67003      0.89765      0.28635  1.0000
  Si          0.09323      0.73040      0.61858  1.0000
  Si          0.75812      0.64393      0.45290  1.0000
  Si          0.34759      0.07500      0.78467  1.0000
  Si          0.91636      0.24386      0.12161  1.0000
  Si          0.34796      0.23604      0.38156  1.0000
  Si          0.91520      0.66240      0.04799  1.0000
  Si          0.75351      0.06851      0.71276  1.0000
  Si          0.67287      0.73697      0.88429  1.0000
  Si          0.09699      0.32357      0.54719  1.0000
  Si          0.25446      0.88808      0.21414  1.0000
  Si          0.97173      0.11914      0.96742  1.0000
  Si          0.88878      0.83672      0.30067  1.0000
  Si          0.15575      0.01058      0.63385  1.0000
  Si          0.03696      0.86198      0.46732  1.0000
  Si          0.12913      0.13732      0.80129  1.0000
  Si          0.86409      0.96538      0.13601  1.0000
  Si          0.12995      0.95704      0.36630  1.0000
  Si          0.85869      0.88163      0.03380  1.0000
  Si          0.03442      0.13349      0.69978  1.0000
  Si          0.88511      0.01868      0.86638  1.0000
  Si          0.15920      0.10507      0.53269  1.0000
  Si          0.97493      0.82999      0.19871  1.0000
  O2          0.93486      0.00135      0.00061  1.0000
  O2          0.00864      0.91613      0.33403  1.0000
  O2          0.07976      0.05351      0.66842  1.0000
  O2          0.07904      0.98254      0.50072  1.0000
  O2          0.00963      0.05858      0.83507  1.0000
  O2          0.94568      0.92652      0.16857  1.0000
  O2          0.35156      0.56616      0.33480  1.0000
  O2          0.42405      0.73973      0.66739  1.0000
  O2          0.24290      0.65273      0.00153  1.0000
  O2          0.66982      0.41233      0.82736  1.0000
  O2          0.57137      0.21280      0.16537  1.0000
  O2          0.77084      0.32339      0.49818  1.0000
  O3          0.58360      0.33849      0.00123  1.0000
  O2          0.76436      0.40113      0.66370  1.0000
  O2          0.66582      0.22379      0.33225  1.0000
  O2          0.43082      0.64318      0.50161  1.0000
  O2          0.25638      0.56320      0.16720  1.0000
  O2          0.35124      0.75014      0.83430  1.0000
  O2          0.12333      0.20902      0.97325  1.0000
  O2          0.79670      0.89949      0.30682  1.0000
  O2          0.09113      0.85627      0.63876  1.0000
  O2          0.88349      0.77018      0.47313  1.0000
  O2          0.22071      0.07384      0.80526  1.0000
  O2          0.91797      0.11880      0.14167  1.0000
  O2          0.22137      0.11128      0.36153  1.0000
  O2          0.91224      0.78356      0.02323  1.0000
  O2          0.88041      0.06751      0.69347  1.0000
  O2          0.79518      0.86392      0.86305  1.0000
  O2          0.09736      0.19760      0.52663  1.0000
  O2          0.12919      0.88533      0.19298  1.0000
  O2          0.94312      0.85085      0.25048  1.0000
  O2          0.14263      0.05359      0.58382  1.0000
  O2          0.93301      0.06492      0.91693  1.0000
  O2          0.07310      0.12524      0.75126  1.0000
  O2          0.88407      0.93467      0.08455  1.0000
  O2          0.07656      0.91691      0.41702  1.0000
  O2          0.90313      0.20284      0.97993  1.0000
  O2          0.80647      0.68508      0.31339  1.0000
  O2          0.30718      0.07700      0.64512  1.0000
  O2          0.10733      0.77970      0.47905  1.0000
  O2          0.21412      0.28866      0.81408  1.0000
  O2          0.71173      0.89027      0.14683  1.0000
  O2          0.21208      0.88703      0.35401  1.0000
  O2          0.70573      0.81066      0.02334  1.0000
  O2          0.10143      0.28403      0.68700  1.0000
  O2          0.80372      0.08697      0.85177  1.0000
  O2          0.31077      0.18570      0.52088  1.0000
  O3          0.89909      0.68470      0.18603  1.0000
  O2          0.33691      0.62857      0.25117  1.0000
  O2          0.36071      0.65896      0.58424  1.0000
  O2          0.33283      0.66422      0.91824  1.0000
  O2          0.68331      0.33686      0.74650  1.0000
  O2          0.65136      0.32351      0.08545  1.0000
  O2          0.68535      0.30560      0.41588  1.0000
  O3          0.36863      0.30897      0.97473  1.0000
  O2          0.67700      0.02943      0.30439  1.0000
  O2          0.96048      0.60861      0.63673  1.0000
  O2          0.63564      0.65365      0.47204  1.0000
  O2          0.33894      0.94373      0.80430  1.0000
  O2          0.04870      0.36659      0.13844  1.0000
  O2          0.33890      0.36000      0.36407  1.0000
  O2          0.05039      0.66904      0.03210  1.0000
  O2          0.63143      0.93446      0.69578  1.0000
  O2          0.68280      0.61468      0.86542  1.0000
  O2          0.96515      0.31357      0.52849  1.0000
  O2          0.37591      0.02153      0.19657  1.0000
  O2          0.77479      0.30144      0.01526  1.0000
  O2          0.70589      0.45288      0.34409  1.0000
  O2          0.53695      0.20922      0.67533  1.0000
  O2          0.23860      0.68047      0.51116  1.0000
  O2          0.31579      0.52064      0.84731  1.0000
  O2          0.48227      0.75326      0.17825  1.0000
  O2          0.31441      0.75607      0.32356  1.0000
  O2          0.47402      0.69135      0.99044  1.0000
  O2          0.23264      0.51397      0.65670  1.0000
  O2          0.70153      0.21527      0.82069  1.0000
  O2          0.54210      0.28589      0.48967  1.0000
  O3          0.75946      0.44736      0.16157  1.0000
  O2          0.79370      0.53092      0.02960  1.0000
  O2          0.47349      0.23614      0.36139  1.0000
  O2          0.75225      0.19266      0.69185  1.0000
  O2          0.22354      0.44879      0.52835  1.0000
  O2          0.54151      0.72837      0.86642  1.0000
  O2          0.26312      0.76583      0.19507  1.0000
  O2          0.54682      0.77038      0.30633  1.0000
  O2          0.26386      0.45994      0.97286  1.0000
  O2          0.21953      0.73243      0.63904  1.0000
  O2          0.47201      0.20380      0.80298  1.0000
  O2          0.75969      0.51806      0.47213  1.0000
  O2          0.79122      0.24783      0.13917  1.0000
  O2          0.24607      0.31521      0.89985  1.0000
  O2          0.68911      0.89584      0.23191  1.0000
  O2          0.09710      0.75044      0.56420  1.0000
  O2          0.77718      0.66151      0.39853  1.0000
  O2          0.32912      0.07392      0.73028  1.0000
  O2          0.91445      0.23207      0.06674  1.0000
  O2          0.33204      0.21590      0.43608  1.0000
  O3          0.91255      0.68864      0.10062  1.0000
  O2          0.77423      0.07521      0.76716  1.0000
  O2          0.68488      0.75369      0.93857  1.0000
  O2          0.09792      0.30537      0.60172  1.0000
  O2          0.23655      0.88686      0.26880  1.0000
  O3          0.60660      0.56686      0.00053  1.0000
  O2          0.44697      0.01475      0.32338  1.0000
  O2          0.97367      0.39294      0.65657  1.0000
  O2          0.42134      0.42477      0.49209  1.0000
  O2          0.56738      0.95517      0.82364  1.0000
  O3          0.05097      0.58449      0.16377  1.0000
  O2          0.56814      0.57291      0.34383  1.0000
  O2          0.02885      0.43933      0.01415  1.0000
  O2          0.41863      0.95116      0.67570  1.0000
  O2          0.45410      0.40404      0.84536  1.0000
  O2          0.98103      0.54208      0.50812  1.0000
  O2          0.59402      0.01127      0.17598  1.0000
  O2          0.58707      0.14848      0.24927  1.0000
  O2          0.84108      0.40136      0.58138  1.0000
  O3          0.60566      0.40124      0.91352  1.0000
  O2          0.42339      0.81621      0.75040  1.0000
  O2          0.16969      0.57763      0.08588  1.0000
  O2          0.42700      0.56822      0.41818  1.0000
  F           0.46303      0.88698      0.25074  1.0000
  F           0.10141      0.53053      0.58422  1.0000
  F           0.48027      0.51603      0.92777  1.0000
  F           0.55237      0.07609      0.75003  1.0000
  F           0.91204      0.47667      0.09565  1.0000
  F           0.55713      0.43606      0.41848  1.0000
