data_cif

_audit_creation_method             'generated by GULP'

_symmetry_space_group_name_H-M     'P 1'
_symmetry_Int_Tables_number        1
_symmetry_cell_setting             triclinic

_cell_length_a                       11.9759
_cell_length_b                       11.9382
_cell_length_c                       29.3987
_cell_angle_alpha                   89.2652
_cell_angle_beta                    90.0073
_cell_angle_gamma                  119.8399

loop_
_atom_site_label
_atom_site_fract_x
_atom_site_fract_y
_atom_site_fract_z
_atom_site_occupancy
  Si          0.69960      0.37570      0.03389  1.0000
  Si          0.61861      0.30914      0.36905  1.0000
  Si          0.68136      0.28865      0.69778  1.0000
  Si          0.31024      0.62840      0.53593  1.0000
  Si          0.38663      0.67048      0.86902  1.0000
  Si          0.32473      0.69565      0.20204  1.0000
  Si          0.37884      0.69441      0.30304  1.0000
  Si          0.32775      0.61523      0.97151  1.0000
  Si          0.30339      0.67335      0.63670  1.0000
  Si          0.62827      0.29227      0.79852  1.0000
  Si          0.68583      0.36464      0.47101  1.0000
  Si          0.70485      0.32103      0.13587  1.0000
  Ge          0.53192      0.42486      0.96586  1.0000
  Si          0.58025      0.10269      0.30289  1.0000
  Si          0.89509      0.46325      0.63367  1.0000
  Si          0.47372      0.58038      0.47333  1.0000
  Si          0.42608      0.88295      0.80282  1.0000
  Si          0.11542      0.52656      0.13677  1.0000
  Si          0.41301      0.52053      0.37044  1.0000
  Si          0.11400      0.57888      0.03513  1.0000
  Si          0.47636      0.87991      0.70134  1.0000
  Si          0.59828      0.46111      0.86641  1.0000
  Si          0.90581      0.41652      0.53244  1.0000
  Si          0.53100      0.10806      0.20097  1.0000
  Si          0.31119      0.38926      0.85409  1.0000
  Si          0.60279      0.89821      0.18682  1.0000
  Si          0.10711      0.70073      0.51991  1.0000
  Si          0.69757      0.59201      0.35446  1.0000
  Si          0.40251      0.08821      0.68512  1.0000
  Si          0.90449      0.29978      0.02096  1.0000
  Ge          0.41621      0.30595      0.47920  1.0000
  Si          0.90678      0.59774      0.15040  1.0000
  Si          0.70502      0.09073      0.81546  1.0000
  Si          0.61048      0.69665      0.98920  1.0000
  Si          0.10474      0.39293      0.64948  1.0000
  Si          0.30031      0.89468      0.31763  1.0000
  Si          0.25328      0.32751      0.95668  1.0000
  Si          0.65860      0.90242      0.28766  1.0000
  Si          0.09378      0.74394      0.62079  1.0000
  Si          0.75420      0.65180      0.45604  1.0000
  Si          0.34722      0.08338      0.78639  1.0000
  Si          0.91415      0.24931      0.12179  1.0000
  Si          0.33157      0.23562      0.38347  1.0000
  Si          0.91297      0.65647      0.04934  1.0000
  Si          0.75500      0.08009      0.71480  1.0000
  Si          0.67158      0.74105      0.88579  1.0000
  Si          0.10893      0.34191      0.54854  1.0000
  Si          0.25259      0.90564      0.21659  1.0000
  Si          0.96825      0.11901      0.96978  1.0000
  Si          0.87623      0.83993      0.30248  1.0000
  Si          0.15500      0.02292      0.63491  1.0000
  Si          0.03305      0.87693      0.46951  1.0000
  Si          0.12873      0.14431      0.80298  1.0000
  Si          0.85303      0.96928      0.13732  1.0000
  Si          0.11888      0.96135      0.36701  1.0000
  Si          0.85433      0.87922      0.03671  1.0000
  Si          0.03545      0.14375      0.70139  1.0000
  Si          0.88428      0.02430      0.86842  1.0000
  Si          0.16607      0.11955      0.53291  1.0000
  Si          0.97315      0.84341      0.20168  1.0000
  O2          0.93248      0.99920      0.00303  1.0000
  O2          0.99535      0.91662      0.33553  1.0000
  O2          0.07935      0.06477      0.66967  1.0000
  O2          0.07149      0.99668      0.50199  1.0000
  O2          0.00930      0.06551      0.83719  1.0000
  O2          0.93160      0.92715      0.17066  1.0000
  O2          0.34028      0.57188      0.33703  1.0000
  O2          0.42515      0.75367      0.66993  1.0000
  O2          0.24073      0.65378      0.00229  1.0000
  O2          0.66937      0.41969      0.82856  1.0000
  O2          0.58091      0.23512      0.16873  1.0000
  O2          0.78598      0.33645      0.49859  1.0000
  O3          0.58182      0.33797      0.00219  1.0000
  O2          0.76597      0.41133      0.66456  1.0000
  O2          0.65672      0.22717      0.33541  1.0000
  O2          0.43437      0.67005      0.50299  1.0000
  O2          0.24046      0.57411      0.16937  1.0000
  O2          0.35073      0.75686      0.83621  1.0000
  O2          0.12025      0.20901      0.97517  1.0000
  O2          0.78549      0.90328      0.30757  1.0000
  O2          0.09081      0.86809      0.64115  1.0000
  O2          0.87945      0.77800      0.47519  1.0000
  O2          0.22039      0.08124      0.80713  1.0000
  O2          0.91417      0.12282      0.14278  1.0000
  O2          0.21136      0.11465      0.35828  1.0000
  O2          0.91239      0.78410      0.02965  1.0000
  O2          0.88145      0.07944      0.69540  1.0000
  O2          0.79395      0.86953      0.86455  1.0000
  O2          0.11260      0.22064      0.52702  1.0000
  O2          0.12717      0.90675      0.19630  1.0000
  O2          0.93181      0.85193      0.25253  1.0000
  O2          0.14013      0.06417      0.58469  1.0000
  O2          0.93014      0.06591      0.91930  1.0000
  O2          0.07311      0.13260      0.75289  1.0000
  O2          0.87249      0.93150      0.08731  1.0000
  O2          0.06641      0.92709      0.41801  1.0000
  O2          0.89905      0.20096      0.98211  1.0000
  O2          0.79168      0.68747      0.31501  1.0000
  O2          0.30669      0.08963      0.64659  1.0000
  O2          0.10756      0.79884      0.48116  1.0000
  O2          0.21376      0.29563      0.81543  1.0000
  O2          0.70049      0.89816      0.14846  1.0000
  O2          0.19997      0.88975      0.35593  1.0000
  O2          0.70260      0.80628      0.02519  1.0000
  O2          0.10424      0.29533      0.68864  1.0000
  O2          0.80399      0.09395      0.85379  1.0000
  O3          0.31229      0.18941      0.52110  1.0000
  O2          0.90364      0.69314      0.18877  1.0000
  O2          0.32299      0.63718      0.25283  1.0000
  O2          0.36488      0.68026      0.58661  1.0000
  O2          0.33117      0.66616      0.91960  1.0000
  O2          0.68411      0.34689      0.74778  1.0000
  O2          0.64954      0.32366      0.08594  1.0000
  O2          0.67530      0.30976      0.41918  1.0000
  O3          0.36533      0.30815      0.97594  1.0000
  O2          0.66766      0.03365      0.30655  1.0000
  O2          0.96165      0.61901      0.63846  1.0000
  O2          0.63082      0.66081      0.47308  1.0000
  O2          0.33860      0.95167      0.80631  1.0000
  O2          0.04624      0.36996      0.14063  1.0000
  O2          0.32684      0.36478      0.36760  1.0000
  O2          0.04743      0.66872      0.03139  1.0000
  O2          0.63224      0.94665      0.69803  1.0000
  O2          0.68167      0.61990      0.86675  1.0000
  O2          0.97604      0.33098      0.53058  1.0000
  O2          0.37501      0.03897      0.19834  1.0000
  O2          0.77226      0.30108      0.01420  1.0000
  O2          0.69262      0.45570      0.34874  1.0000
  O2          0.53722      0.22119      0.67690  1.0000
  O2          0.24331      0.70519      0.51344  1.0000
  O2          0.31537      0.52640      0.84852  1.0000
  O2          0.46873      0.76451      0.17996  1.0000
  O2          0.30312      0.76158      0.32549  1.0000
  O2          0.47201      0.69172      0.99177  1.0000
  O2          0.23501      0.52838      0.65859  1.0000
  O2          0.70220      0.22363      0.82229  1.0000
  O3          0.55049      0.28917      0.49593  1.0000
  O2          0.77408      0.46301      0.15881  1.0000
  O2          0.78997      0.53254      0.02907  1.0000
  O2          0.46402      0.24321      0.36566  1.0000
  O2          0.75325      0.20433      0.69364  1.0000
  O2          0.23127      0.47309      0.52994  1.0000
  O2          0.54074      0.73349      0.86802  1.0000
  O2          0.25291      0.78003      0.19739  1.0000
  O2          0.53485      0.77365      0.30754  1.0000
  O2          0.26301      0.46050      0.97476  1.0000
  O2          0.22036      0.74659      0.64125  1.0000
  O2          0.47220      0.21167      0.80447  1.0000
  O2          0.74972      0.52188      0.47376  1.0000
  O2          0.78654      0.24629      0.14100  1.0000
  O2          0.24372      0.31891      0.90139  1.0000
  O2          0.67728      0.90232      0.23329  1.0000
  O2          0.09719      0.76675      0.56637  1.0000
  O2          0.76472      0.66121      0.40123  1.0000
  O2          0.32899      0.08391      0.73200  1.0000
  O2          0.91266      0.22967      0.06746  1.0000
  O3          0.30667      0.20546      0.43615  1.0000
  O2          0.91009      0.67282      0.10380  1.0000
  O2          0.77513      0.08531      0.76922  1.0000
  O2          0.68351      0.75497      0.94014  1.0000
  O2          0.10839      0.32299      0.60324  1.0000
  O2          0.23176      0.90112      0.27101  1.0000
  O3          0.60236      0.56472      0.00199  1.0000
  O2          0.43897      0.02056      0.32651  1.0000
  O2          0.97646      0.40282      0.65720  1.0000
  O3          0.41447      0.44457      0.49923  1.0000
  O2          0.56721      0.96338      0.82578  1.0000
  O2          0.03360      0.58628      0.15994  1.0000
  O2          0.55552      0.57179      0.34959  1.0000
  O2          0.03168      0.43874      0.01160  1.0000
  O2          0.41910      0.96383      0.67764  1.0000
  O2          0.45276      0.40936      0.84681  1.0000
  O2          0.98608      0.55988      0.50973  1.0000
  O2          0.58728      0.02326      0.17801  1.0000
  O2          0.58261      0.15868      0.25204  1.0000
  O2          0.84613      0.41396      0.58243  1.0000
  O3          0.60344      0.40375      0.91471  1.0000
  O2          0.42339      0.82670      0.75262  1.0000
  O2          0.17060      0.58022      0.08567  1.0000
  O2          0.41804      0.57185      0.42157  1.0000
  F           0.45362      0.89708      0.25360  1.0000
  F           0.10621      0.54901      0.58529  1.0000
  F           0.47858      0.51800      0.92897  1.0000
  F           0.55307      0.08622      0.75186  1.0000
  F           0.91478      0.45307      0.08683  1.0000
  F           0.52063      0.41397      0.43055  1.0000
