data_cif

_audit_creation_method             'generated by GULP'

_symmetry_space_group_name_H-M     'P 1'
_symmetry_Int_Tables_number        1
_symmetry_cell_setting             triclinic

_cell_length_a                       11.9092
_cell_length_b                       11.9655
_cell_length_c                       29.4969
_cell_angle_alpha                   89.7855
_cell_angle_beta                    89.7524
_cell_angle_gamma                  119.7278

loop_
_atom_site_label
_atom_site_fract_x
_atom_site_fract_y
_atom_site_fract_z
_atom_site_occupancy
  Si          0.69960      0.37570      0.03389  1.0000
  Si          0.62178      0.31759      0.36613  1.0000
  Si          0.67261      0.28697      0.69700  1.0000
  Si          0.29429      0.61284      0.53140  1.0000
  Si          0.38740      0.65939      0.86659  1.0000
  Si          0.32921      0.70246      0.19866  1.0000
  Si          0.38078      0.69826      0.29933  1.0000
  Si          0.32618      0.61233      0.96857  1.0000
  Si          0.29297      0.66547      0.63190  1.0000
  Si          0.62450      0.29199      0.79978  1.0000
  Si          0.67269      0.37197      0.46647  1.0000
  Si          0.70917      0.32593      0.13534  1.0000
  Ge          0.53459      0.42667      0.96635  1.0000
  Si          0.58530      0.10835      0.30163  1.0000
  Si          0.88539      0.46139      0.63262  1.0000
  Si          0.46599      0.57412      0.46602  1.0000
  Si          0.41198      0.86520      0.80055  1.0000
  Si          0.12001      0.53188      0.13344  1.0000
  Si          0.41600      0.52390      0.36447  1.0000
  Si          0.11301      0.57877      0.03231  1.0000
  Si          0.46602      0.87225      0.69686  1.0000
  Si          0.60733      0.46260      0.86801  1.0000
  Si          0.88260      0.41008      0.53128  1.0000
  Si          0.53644      0.11433      0.20014  1.0000
  Si          0.31642      0.37971      0.85282  1.0000
  Si          0.60846      0.90506      0.18495  1.0000
  Si          0.09222      0.69074      0.51724  1.0000
  Si          0.69886      0.59566      0.35088  1.0000
  Si          0.39158      0.08455      0.68024  1.0000
  Si          0.90446      0.29925      0.01950  1.0000
  Si          0.39344      0.29391      0.48103  1.0000
  Si          0.91044      0.60329      0.14839  1.0000
  Si          0.69551      0.08049      0.81455  1.0000
  Si          0.61031      0.69828      0.98821  1.0000
  Si          0.09320      0.38751      0.64720  1.0000
  Si          0.30446      0.89969      0.31516  1.0000
  Si          0.25432      0.32496      0.95498  1.0000
  Si          0.66217      0.90694      0.28552  1.0000
  Si          0.08446      0.73970      0.61794  1.0000
  Si          0.74602      0.65250      0.45146  1.0000
  Ge          0.35739      0.07608      0.78037  1.0000
  Si          0.91942      0.25413      0.11997  1.0000
  Si          0.33878      0.24531      0.38036  1.0000
  Si          0.91192      0.65738      0.04758  1.0000
  Si          0.74721      0.07409      0.71240  1.0000
  Si          0.67522      0.74034      0.88535  1.0000
  Si          0.08477      0.33200      0.54648  1.0000
  Si          0.25737      0.91191      0.21474  1.0000
  Si          0.96782      0.11816      0.96762  1.0000
  Si          0.88023      0.84409      0.30059  1.0000
  Si          0.14638      0.01884      0.63156  1.0000
  Si          0.02501      0.87145      0.46635  1.0000
  Si          0.13110      0.13593      0.80004  1.0000
  Si          0.85916      0.97570      0.13501  1.0000
  Si          0.12223      0.96597      0.36567  1.0000
  Si          0.85503      0.88132      0.03471  1.0000
  Si          0.03230      0.14309      0.69987  1.0000
  Si          0.88447      0.02277      0.86622  1.0000
  Si          0.14387      0.11279      0.53131  1.0000
  Si          0.97723      0.84959      0.19969  1.0000
  O2          0.93142      0.99692      0.99959  1.0000
  O2          0.00056      0.92375      0.33337  1.0000
  O2          0.07549      0.06428      0.66725  1.0000
  O2          0.06465      0.99201      0.49891  1.0000
  O2          0.00689      0.06663      0.83379  1.0000
  O2          0.93671      0.93260      0.16822  1.0000
  O2          0.34070      0.57357      0.33169  1.0000
  O2          0.41713      0.74853      0.66431  1.0000
  O2          0.23779      0.65189      0.99847  1.0000
  O2          0.68055      0.42102      0.83038  1.0000
  O2          0.58631      0.24145      0.16867  1.0000
  O2          0.75727      0.33324      0.49940  1.0000
  O3          0.57993      0.33813      0.00307  1.0000
  O2          0.75842      0.41011      0.66501  1.0000
  O2          0.66148      0.23268      0.33420  1.0000
  O2          0.41707      0.65134      0.49836  1.0000
  O2          0.24683      0.58192      0.16537  1.0000
  O2          0.34703      0.73617      0.83150  1.0000
  O2          0.12034      0.20774      0.97340  1.0000
  O2          0.78800      0.90631      0.30602  1.0000
  O2          0.08156      0.86456      0.63780  1.0000
  O2          0.87065      0.77930      0.47156  1.0000
  O3          0.21111      0.06548      0.80235  1.0000
  O2          0.92128      0.12903      0.14070  1.0000
  O2          0.21299      0.11999      0.36024  1.0000
  O2          0.91079      0.78390      0.02782  1.0000
  O2          0.87649      0.07816      0.69362  1.0000
  O2          0.79682      0.86782      0.86378  1.0000
  O2          0.08253      0.20582      0.52562  1.0000
  O2          0.13188      0.91347      0.19449  1.0000
  O2          0.93544      0.85846      0.25041  1.0000
  O2          0.12454      0.05807      0.58197  1.0000
  O2          0.93101      0.06956      0.91659  1.0000
  O2          0.07089      0.13536      0.75083  1.0000
  O2          0.87812      0.93821      0.08475  1.0000
  O2          0.06764      0.92611      0.41618  1.0000
  O2          0.89748      0.19890      0.98087  1.0000
  O2          0.79844      0.69238      0.31268  1.0000
  O2          0.30071      0.08325      0.63871  1.0000
  O2          0.09519      0.78972      0.47895  1.0000
  O2          0.22396      0.28690      0.81342  1.0000
  O2          0.70630      0.90551      0.14631  1.0000
  O2          0.20521      0.89669      0.35388  1.0000
  O2          0.70179      0.80895      0.02419  1.0000
  O2          0.09720      0.29309      0.68599  1.0000
  O2          0.79564      0.08419      0.85180  1.0000
  O2          0.29628      0.19461      0.51950  1.0000
  O2          0.90817      0.69967      0.18660  1.0000
  O2          0.32630      0.64324      0.24893  1.0000
  O2          0.35131      0.66715      0.58172  1.0000
  O2          0.33210      0.66169      0.91661  1.0000
  O2          0.67319      0.33880      0.74766  1.0000
  O2          0.65122      0.32587      0.08587  1.0000
  O2          0.67635      0.31584      0.41661  1.0000
  O3          0.36731      0.30953      0.97576  1.0000
  O2          0.67244      0.03857      0.30466  1.0000
  O2          0.95291      0.61678      0.63706  1.0000
  O2          0.62223      0.66179      0.46955  1.0000
  O3          0.32140      0.92636      0.80596  1.0000
  O2          0.05237      0.37606      0.13782  1.0000
  O2          0.32889      0.36797      0.36197  1.0000
  O2          0.04627      0.66857      0.02906  1.0000
  O2          0.62316      0.94334      0.69484  1.0000
  O2          0.69002      0.62054      0.86781  1.0000
  O2          0.95180      0.32258      0.52897  1.0000
  O2          0.37985      0.04525      0.19708  1.0000
  O2          0.77085      0.29972      0.01362  1.0000
  O2          0.69810      0.46111      0.34394  1.0000
  O2          0.52904      0.21798      0.67542  1.0000
  O2          0.22626      0.68950      0.50999  1.0000
  O2          0.31700      0.51478      0.84748  1.0000
  O2          0.47432      0.77218      0.17713  1.0000
  O2          0.30475      0.76551      0.32226  1.0000
  O2          0.46965      0.69005      0.98995  1.0000
  O2          0.22530      0.52283      0.65476  1.0000
  O2          0.69223      0.21268      0.81989  1.0000
  O2          0.52886      0.29582      0.48907  1.0000
  O2          0.77855      0.46866      0.15759  1.0000
  O2          0.78852      0.53201      0.02813  1.0000
  O2          0.46555      0.24507      0.36117  1.0000
  O2          0.73673      0.19545      0.69446  1.0000
  O2          0.21073      0.45749      0.52680  1.0000
  O2          0.54293      0.72770      0.86596  1.0000
  O2          0.25681      0.78655      0.19471  1.0000
  O2          0.53698      0.77901      0.30463  1.0000
  O2          0.26133      0.45820      0.97143  1.0000
  O2          0.21248      0.74188      0.63720  1.0000
  O3          0.47119      0.22024      0.80715  1.0000
  O2          0.74783      0.52775      0.47156  1.0000
  O2          0.79226      0.25222      0.13994  1.0000
  O2          0.24808      0.31056      0.89997  1.0000
  O2          0.68209      0.90747      0.23130  1.0000
  O2          0.08585      0.75907      0.56370  1.0000
  O2          0.76731      0.66974      0.39726  1.0000
  O3          0.30970      0.08050      0.72357  1.0000
  O2          0.91540      0.23197      0.06583  1.0000
  O2          0.32005      0.22487      0.43468  1.0000
  O2          0.91068      0.67542      0.10187  1.0000
  O2          0.75686      0.07401      0.76654  1.0000
  O2          0.68397      0.75707      0.93946  1.0000
  O2          0.08949      0.31430      0.60073  1.0000
  O2          0.23531      0.90703      0.26903  1.0000
  O3          0.60447      0.56831      0.00154  1.0000
  O2          0.44328      0.02455      0.32480  1.0000
  O2          0.96522      0.39898      0.65601  1.0000
  O2          0.40632      0.43293      0.48966  1.0000
  O2          0.55553      0.95541      0.82215  1.0000
  O2          0.03860      0.59250      0.15687  1.0000
  O2          0.55863      0.58063      0.34202  1.0000
  O2          0.03060      0.43785      0.00932  1.0000
  O2          0.41372      0.96181      0.67504  1.0000
  O2          0.46222      0.40806      0.84737  1.0000
  O2          0.96787      0.55145      0.50842  1.0000
  O2          0.59403      0.03057      0.17684  1.0000
  O2          0.58738      0.16422      0.25118  1.0000
  O2          0.82990      0.41052      0.58222  1.0000
  O3          0.61189      0.40688      0.91623  1.0000
  O2          0.41609      0.82202      0.74810  1.0000
  O2          0.17321      0.58282      0.08221  1.0000
  O2          0.41400      0.57567      0.41529  1.0000
  F           0.45689      0.90304      0.25103  1.0000
  F           0.09080      0.53940      0.58365  1.0000
  F           0.48142      0.51695      0.92842  1.0000
  F           0.50693      0.07801      0.75389  1.0000
  F           0.91683      0.45549      0.08478  1.0000
  F           0.54642      0.44534      0.41702  1.0000
