data_cif

_audit_creation_method             'generated by GULP'

_symmetry_space_group_name_H-M     'P 1'
_symmetry_Int_Tables_number        1
_symmetry_cell_setting             triclinic

_cell_length_a                       11.9410
_cell_length_b                       11.9460
_cell_length_c                       29.4530
_cell_angle_alpha                   89.6032
_cell_angle_beta                    90.0657
_cell_angle_gamma                  119.6916

loop_
_atom_site_label
_atom_site_fract_x
_atom_site_fract_y
_atom_site_fract_z
_atom_site_occupancy
  Si          0.69960      0.37570      0.03389  1.0000
  Si          0.62441      0.31640      0.36680  1.0000
  Si          0.67780      0.28058      0.69714  1.0000
  Si          0.29921      0.60958      0.53260  1.0000
  Si          0.38253      0.66447      0.86639  1.0000
  Si          0.33063      0.70150      0.19951  1.0000
  Si          0.38385      0.69779      0.30030  1.0000
  Si          0.32581      0.61417      0.96908  1.0000
  Si          0.29808      0.66176      0.63328  1.0000
  Si          0.62278      0.27944      0.79773  1.0000
  Si          0.67760      0.36964      0.46728  1.0000
  Si          0.70937      0.32516      0.13563  1.0000
  Ge          0.53146      0.42301      0.96589  1.0000
  Si          0.58708      0.10737      0.30206  1.0000
  Si          0.88875      0.45720      0.63327  1.0000
  Si          0.47177      0.57297      0.46743  1.0000
  Si          0.41886      0.87072      0.79930  1.0000
  Si          0.12035      0.53110      0.13439  1.0000
  Si          0.42026      0.52362      0.36570  1.0000
  Si          0.11307      0.57858      0.03306  1.0000
  Si          0.47147      0.86974      0.69791  1.0000
  Si          0.59868      0.45168      0.86644  1.0000
  Si          0.88829      0.40653      0.53170  1.0000
  Si          0.53695      0.11304      0.20041  1.0000
  Si          0.31152      0.38398      0.85240  1.0000
  Si          0.60881      0.90357      0.18553  1.0000
  Si          0.09740      0.68704      0.51795  1.0000
  Si          0.70171      0.59496      0.35201  1.0000
  Si          0.40000      0.07975      0.68317  1.0000
  Si          0.90439      0.29953      0.01996  1.0000
  Si          0.39938      0.29196      0.48212  1.0000
  Si          0.91112      0.60259      0.14910  1.0000
  Si          0.69890      0.07692      0.81344  1.0000
  Si          0.60866      0.69543      0.98997  1.0000
  Si          0.09706      0.38418      0.64795  1.0000
  Si          0.30687      0.89910      0.31592  1.0000
  Si          0.25081      0.32546      0.95456  1.0000
  Si          0.66460      0.90613      0.28623  1.0000
  Si          0.08930      0.73545      0.61869  1.0000
  Si          0.75095      0.65120      0.45273  1.0000
  Si          0.34179      0.07295      0.78382  1.0000
  Si          0.91927      0.25325      0.12055  1.0000
  Si          0.34279      0.24438      0.38130  1.0000
  Si          0.91233      0.65675      0.04808  1.0000
  Si          0.74986      0.07040      0.71282  1.0000
  Ge          0.67126      0.73376      0.88576  1.0000
  Si          0.09010      0.32873      0.54726  1.0000
  Si          0.25876      0.91106      0.21524  1.0000
  Si          0.96593      0.11683      0.96856  1.0000
  Si          0.88299      0.84368      0.30179  1.0000
  Si          0.15204      0.01529      0.63384  1.0000
  Si          0.03035      0.86909      0.46762  1.0000
  Si          0.12814      0.14061      0.80089  1.0000
  Si          0.85915      0.97436      0.13626  1.0000
  Si          0.12554      0.96522      0.36682  1.0000
  Si          0.85367      0.87943      0.03612  1.0000
  Si          0.03148      0.13697      0.69974  1.0000
  Si          0.88503      0.01923      0.86701  1.0000
  Si          0.15158      0.11054      0.53288  1.0000
  Si          0.97893      0.84890      0.20085  1.0000
  O2          0.92894      0.99695      0.00149  1.0000
  O2          0.00286      0.92321      0.33490  1.0000
  O2          0.07685      0.05750      0.66860  1.0000
  O2          0.07142      0.98848      0.50099  1.0000
  O2          0.01253      0.07031      0.83635  1.0000
  O2          0.93696      0.93245      0.17004  1.0000
  O2          0.34455      0.57346      0.33293  1.0000
  O2          0.42173      0.74446      0.66580  1.0000
  O2          0.23787      0.65239      0.99946  1.0000
  O2          0.66592      0.40390      0.82928  1.0000
  O2          0.58677      0.24034      0.16873  1.0000
  O2          0.76279      0.33015      0.49971  1.0000
  O3          0.57990      0.33674      0.00278  1.0000
  O2          0.76159      0.40533      0.66511  1.0000
  O2          0.66358      0.23184      0.33455  1.0000
  O2          0.42237      0.64911      0.49990  1.0000
  O2          0.24704      0.58047      0.16635  1.0000
  O2          0.34219      0.74576      0.83246  1.0000
  O2          0.11882      0.20750      0.97348  1.0000
  O2          0.79097      0.90622      0.30656  1.0000
  O2          0.08782      0.86089      0.63883  1.0000
  O2          0.87621      0.77778      0.47270  1.0000
  O2          0.21496      0.07169      0.80424  1.0000
  O2          0.92085      0.12799      0.14151  1.0000
  O2          0.21648      0.11931      0.36121  1.0000
  O2          0.91090      0.78346      0.02825  1.0000
  O2          0.87726      0.07103      0.69329  1.0000
  O3          0.80587      0.86728      0.86242  1.0000
  O2          0.08902      0.20244      0.52690  1.0000
  O2          0.13296      0.91235      0.19509  1.0000
  O2          0.93925      0.85742      0.25184  1.0000
  O2          0.13675      0.05834      0.58389  1.0000
  O2          0.92758      0.06425      0.91808  1.0000
  O2          0.06932      0.12828      0.75126  1.0000
  O2          0.87910      0.93602      0.08630  1.0000
  O2          0.07270      0.92565      0.41753  1.0000
  O2          0.89742      0.19950      0.98116  1.0000
  O2          0.80079      0.69191      0.31381  1.0000
  O2          0.30416      0.08194      0.64451  1.0000
  O2          0.09968      0.78601      0.47948  1.0000
  O2          0.21827      0.29155      0.81263  1.0000
  O2          0.70657      0.90415      0.14705  1.0000
  O2          0.20792      0.89576      0.35454  1.0000
  O2          0.70002      0.80409      0.02694  1.0000
  O2          0.09919      0.28772      0.68668  1.0000
  O2          0.79533      0.07938      0.85235  1.0000
  O2          0.30305      0.19232      0.52056  1.0000
  O2          0.90931      0.69897      0.18735  1.0000
  O2          0.32884      0.64230      0.24983  1.0000
  O2          0.35592      0.66393      0.58301  1.0000
  O2          0.33020      0.66434      0.91722  1.0000
  O2          0.67882      0.33636      0.74741  1.0000
  O2          0.65191      0.32598      0.08595  1.0000
  O2          0.67986      0.31392      0.41719  1.0000
  O3          0.36509      0.30965      0.97410  1.0000
  O2          0.67443      0.03789      0.30509  1.0000
  O2          0.95683      0.61311      0.63716  1.0000
  O2          0.62773      0.66057      0.47091  1.0000
  O2          0.33210      0.94056      0.80278  1.0000
  O2          0.05209      0.37500      0.13851  1.0000
  O2          0.33302      0.36755      0.36301  1.0000
  O2          0.04622      0.66833      0.02947  1.0000
  O2          0.62784      0.93765      0.69501  1.0000
  O3          0.68649      0.60733      0.86518  1.0000
  O2          0.95773      0.31921      0.52899  1.0000
  O2          0.38074      0.04419      0.19723  1.0000
  O2          0.77136      0.30037      0.01370  1.0000
  O2          0.70044      0.46018      0.34462  1.0000
  O2          0.53415      0.21272      0.67534  1.0000
  O2          0.23110      0.68597      0.51064  1.0000
  O2          0.31230      0.51899      0.84703  1.0000
  O2          0.47476      0.77067      0.17762  1.0000
  O2          0.30784      0.76500      0.32296  1.0000
  O2          0.46962      0.69068      0.99003  1.0000
  O2          0.23013      0.51819      0.65572  1.0000
  O2          0.69584      0.20924      0.82057  1.0000
  O2          0.53445      0.29344      0.48989  1.0000
  O2          0.77936      0.46793      0.15797  1.0000
  O2          0.78862      0.53222      0.02811  1.0000
  O2          0.46851      0.24364      0.36181  1.0000
  O2          0.74999      0.19625      0.69260  1.0000
  O2          0.21656      0.45391      0.52782  1.0000
  O3          0.53528      0.72976      0.86409  1.0000
  O2          0.25784      0.78529      0.19532  1.0000
  O2          0.53972      0.77864      0.30550  1.0000
  O2          0.26222      0.45984      0.97151  1.0000
  O2          0.21608      0.73643      0.63834  1.0000
  O2          0.46642      0.20005      0.80285  1.0000
  O2          0.75223      0.52556      0.47256  1.0000
  O2          0.79257      0.25167      0.14019  1.0000
  O2          0.24348      0.31429      0.89946  1.0000
  O2          0.68298      0.90596      0.23191  1.0000
  O2          0.09158      0.75597      0.56438  1.0000
  O2          0.77094      0.66880      0.39843  1.0000
  O2          0.32437      0.07489      0.72947  1.0000
  O2          0.91514      0.23141      0.06631  1.0000
  O2          0.32529      0.22344      0.43568  1.0000
  O2          0.91124      0.67480      0.10241  1.0000
  O2          0.76928      0.07242      0.76712  1.0000
  O3          0.68803      0.75962      0.94304  1.0000
  O2          0.09270      0.31011      0.60163  1.0000
  O2          0.23791      0.90672      0.26959  1.0000
  O3          0.59805      0.56214      0.00225  1.0000
  O2          0.44581      0.02365      0.32532  1.0000
  O2          0.97119      0.39792      0.65688  1.0000
  O2          0.41303      0.43135      0.49086  1.0000
  O2          0.56037      0.94993      0.82239  1.0000
  O2          0.03874      0.59127      0.15764  1.0000
  O2          0.56210      0.58083      0.34306  1.0000
  O2          0.03115      0.43773      0.00980  1.0000
  O2          0.41464      0.95452      0.67461  1.0000
  O2          0.45404      0.40549      0.84635  1.0000
  O2          0.97283      0.54817      0.50882  1.0000
  O2          0.59442      0.02933      0.17713  1.0000
  O2          0.58823      0.16315      0.25149  1.0000
  O2          0.83542      0.40617      0.58255  1.0000
  O3          0.60090      0.39656      0.91546  1.0000
  O2          0.41746      0.81583      0.74882  1.0000
  O2          0.17315      0.58244      0.08311  1.0000
  O2          0.41936      0.57521      0.41663  1.0000
  F           0.45854      0.90192      0.25121  1.0000
  F           0.09623      0.53548      0.58359  1.0000
  F           0.48684      0.52309      0.92701  1.0000
  F           0.54716      0.07573      0.74893  1.0000
  F           0.91744      0.45562      0.08474  1.0000
  F           0.55078      0.44403      0.41762  1.0000
