data_cif

_audit_creation_method             'generated by GULP'

_symmetry_space_group_name_H-M     'P 1'
_symmetry_Int_Tables_number        1
_symmetry_cell_setting             triclinic

_cell_length_a                       11.9428
_cell_length_b                       11.8955
_cell_length_c                       29.5066
_cell_angle_alpha                   89.2283
_cell_angle_beta                    90.4365
_cell_angle_gamma                  119.4020

loop_
_atom_site_label
_atom_site_fract_x
_atom_site_fract_y
_atom_site_fract_z
_atom_site_occupancy
  Si          0.69960      0.37570      0.03389  1.0000
  Si          0.62496      0.32553      0.36835  1.0000
  Si          0.68032      0.28854      0.69727  1.0000
  Si          0.30111      0.61762      0.53322  1.0000
  Si          0.38640      0.66640      0.86615  1.0000
  Si          0.33743      0.71836      0.20040  1.0000
  Si          0.38744      0.70925      0.30073  1.0000
  Si          0.32812      0.61473      0.96824  1.0000
  Si          0.30122      0.66891      0.63379  1.0000
  Si          0.62622      0.28702      0.79770  1.0000
  Si          0.67845      0.37783      0.46852  1.0000
  Si          0.70446      0.32635      0.13764  1.0000
  Ge          0.53144      0.42452      0.96499  1.0000
  Si          0.58562      0.11723      0.30353  1.0000
  Si          0.89147      0.46512      0.63396  1.0000
  Si          0.47334      0.58203      0.46811  1.0000
  Si          0.42604      0.87727      0.79929  1.0000
  Si          0.13146      0.53726      0.13588  1.0000
  Si          0.42221      0.53336      0.36658  1.0000
  Si          0.11708      0.58036      0.03202  1.0000
  Si          0.47601      0.87662      0.69803  1.0000
  Si          0.59715      0.45526      0.86616  1.0000
  Si          0.88999      0.41489      0.53261  1.0000
  Si          0.53154      0.12473      0.20247  1.0000
  Si          0.31001      0.38393      0.85283  1.0000
  Si          0.61328      0.92172      0.18554  1.0000
  Si          0.09862      0.69546      0.51854  1.0000
  Si          0.70340      0.60519      0.35327  1.0000
  Si          0.40324      0.08753      0.68346  1.0000
  Si          0.90398      0.29598      0.01660  1.0000
  Si          0.40109      0.30020      0.48292  1.0000
  Si          0.91527      0.60682      0.15055  1.0000
  Si          0.70400      0.08427      0.81318  1.0000
  Si          0.61185      0.69824      0.98706  1.0000
  Si          0.10008      0.39174      0.64866  1.0000
  Si          0.30722      0.90814      0.31707  1.0000
  Si          0.25239      0.32547      0.95504  1.0000
  Si          0.66677      0.91838      0.28645  1.0000
  Si          0.09216      0.74278      0.61913  1.0000
  Si          0.75194      0.66032      0.45389  1.0000
  Si          0.34658      0.07901      0.78404  1.0000
  Ge          0.91998      0.27474      0.11647  1.0000
  Si          0.34344      0.25278      0.38229  1.0000
  Si          0.91547      0.66125      0.04804  1.0000
  Si          0.75341      0.07757      0.71275  1.0000
  Si          0.67131      0.73680      0.88399  1.0000
  Si          0.09239      0.33696      0.54823  1.0000
  Si          0.25601      0.92106      0.21684  1.0000
  Si          0.96812      0.11792      0.96643  1.0000
  Si          0.88369      0.85286      0.30178  1.0000
  Si          0.15507      0.02280      0.63400  1.0000
  Si          0.03056      0.87775      0.46773  1.0000
  Si          0.12742      0.13941      0.80114  1.0000
  Si          0.86148      0.98894      0.13497  1.0000
  Si          0.12575      0.97384      0.36711  1.0000
  Si          0.85287      0.88389      0.03571  1.0000
  Si          0.03417      0.14308      0.69993  1.0000
  Si          0.88463      0.01758      0.86608  1.0000
  Si          0.15390      0.11845      0.53308  1.0000
  Si          0.97583      0.85497      0.20062  1.0000
  O2          0.92972      0.00087      0.00111  1.0000
  O2          0.00601      0.93363      0.33373  1.0000
  O2          0.07947      0.06494      0.66830  1.0000
  O2          0.07378      0.99822      0.50062  1.0000
  O2          0.00817      0.05830      0.83453  1.0000
  O2          0.92977      0.93234      0.16855  1.0000
  O2          0.34778      0.58411      0.33330  1.0000
  O2          0.42536      0.75125      0.66608  1.0000
  O2          0.24063      0.65420      0.99847  1.0000
  O2          0.66772      0.41274      0.82869  1.0000
  O2          0.57899      0.25247      0.17055  1.0000
  O2          0.76430      0.33814      0.50095  1.0000
  O3          0.58112      0.33958      0.00263  1.0000
  O2          0.76442      0.41384      0.66551  1.0000
  O2          0.66339      0.24069      0.33617  1.0000
  O2          0.42344      0.65769      0.50052  1.0000
  O2          0.26110      0.60005      0.16589  1.0000
  O2          0.35052      0.75129      0.83227  1.0000
  O2          0.12005      0.20726      0.97309  1.0000
  O2          0.79307      0.91732      0.30667  1.0000
  O2          0.09150      0.86844      0.63953  1.0000
  O2          0.87711      0.78686      0.47372  1.0000
  O2          0.21929      0.07568      0.80463  1.0000
  O3          0.92944      0.13805      0.13881  1.0000
  O2          0.21706      0.12836      0.36226  1.0000
  O2          0.91045      0.78641      0.02875  1.0000
  O2          0.88041      0.07820      0.69331  1.0000
  O2          0.79391      0.86290      0.86239  1.0000
  O2          0.09112      0.21083      0.52763  1.0000
  O2          0.13002      0.92122      0.19622  1.0000
  O2          0.93349      0.86100      0.25133  1.0000
  O2          0.13929      0.06439      0.58384  1.0000
  O2          0.93381      0.05944      0.91654  1.0000
  O2          0.07177      0.13095      0.75123  1.0000
  O2          0.86985      0.93440      0.08596  1.0000
  O2          0.06939      0.93248      0.41728  1.0000
  O2          0.90067      0.20485      0.97463  1.0000
  O2          0.80223      0.70174      0.31522  1.0000
  O2          0.30688      0.09007      0.64497  1.0000
  O2          0.10032      0.79440      0.47984  1.0000
  O2          0.21204      0.28992      0.81442  1.0000
  O2          0.70868      0.92508      0.14649  1.0000
  O2          0.20885      0.90428      0.35583  1.0000
  O2          0.70167      0.80914      0.02284  1.0000
  O2          0.10204      0.29466      0.68760  1.0000
  O2          0.80306      0.08691      0.85154  1.0000
  O2          0.30498      0.20018      0.52119  1.0000
  O2          0.91350      0.70417      0.18778  1.0000
  O2          0.33227      0.65481      0.25033  1.0000
  O2          0.35804      0.67097      0.58362  1.0000
  O2          0.33157      0.66494      0.91636  1.0000
  O2          0.68167      0.34379      0.74750  1.0000
  O2          0.65516      0.32818      0.08609  1.0000
  O2          0.68050      0.32186      0.41868  1.0000
  O3          0.36563      0.30810      0.97503  1.0000
  O2          0.67367      0.04795      0.30631  1.0000
  O2          0.96013      0.62125      0.63783  1.0000
  O2          0.62881      0.66972      0.47189  1.0000
  O2          0.33844      0.94649      0.80301  1.0000
  O3          0.07045      0.38575      0.14137  1.0000
  O2          0.33442      0.37727      0.36413  1.0000
  O2          0.04641      0.66730      0.02978  1.0000
  O2          0.63191      0.94460      0.69513  1.0000
  O2          0.68078      0.61378      0.86630  1.0000
  O2          0.95983      0.32749      0.53013  1.0000
  O2          0.37589      0.05640      0.19975  1.0000
  O2          0.77186      0.30154      0.01316  1.0000
  O2          0.70169      0.46966      0.34629  1.0000
  O2          0.53654      0.22099      0.67578  1.0000
  O2          0.23214      0.69427      0.51148  1.0000
  O2          0.31437      0.52141      0.84656  1.0000
  O2          0.48056      0.78732      0.17895  1.0000
  O2          0.31095      0.77491      0.32423  1.0000
  O2          0.47169      0.69073      0.98898  1.0000
  O2          0.23315      0.52519      0.65649  1.0000
  O2          0.70014      0.21670      0.82077  1.0000
  O2          0.53599      0.30136      0.49112  1.0000
  O2          0.78297      0.47295      0.15719  1.0000
  O2          0.79531      0.53114      0.03066  1.0000
  O2          0.46947      0.25301      0.36310  1.0000
  O2          0.75198      0.20338      0.69251  1.0000
  O2          0.21827      0.46192      0.52874  1.0000
  O2          0.54028      0.72866      0.86542  1.0000
  O2          0.25910      0.79765      0.19616  1.0000
  O2          0.54313      0.78918      0.30516  1.0000
  O2          0.26205      0.45993      0.97205  1.0000
  O2          0.21946      0.74417      0.63875  1.0000
  O2          0.47043      0.20657      0.80297  1.0000
  O2          0.75324      0.53401      0.47390  1.0000
  O3          0.77778      0.24566      0.14475  1.0000
  O2          0.24335      0.31531      0.89995  1.0000
  O2          0.68670      0.92415      0.23230  1.0000
  O2          0.09331      0.76416      0.56492  1.0000
  O2          0.77184      0.67832      0.39973  1.0000
  O2          0.32853      0.08189      0.72983  1.0000
  O3          0.91254      0.21953      0.05987  1.0000
  O2          0.32691      0.23167      0.43660  1.0000
  O2          0.91898      0.67318      0.10218  1.0000
  O2          0.77388      0.08036      0.76698  1.0000
  O2          0.68309      0.75449      0.93802  1.0000
  O2          0.09574      0.31756      0.60254  1.0000
  O2          0.23509      0.91418      0.27112  1.0000
  O3          0.60589      0.56685      0.99998  1.0000
  O2          0.44482      0.03373      0.32662  1.0000
  O2          0.97406      0.40517      0.65766  1.0000
  O2          0.41441      0.43990      0.49156  1.0000
  O2          0.56697      0.95654      0.82254  1.0000
  O2          0.03945      0.58931      0.15735  1.0000
  O2          0.56374      0.59060      0.34431  1.0000
  O2          0.02934      0.43930      0.01029  1.0000
  O2          0.41902      0.96251      0.67502  1.0000
  O2          0.45157      0.40328      0.84621  1.0000
  O2          0.97436      0.55667      0.50968  1.0000
  O2          0.58890      0.04233      0.17849  1.0000
  O2          0.58504      0.17452      0.25329  1.0000
  O2          0.83796      0.41474      0.58337  1.0000
  O3          0.60231      0.39945      0.91462  1.0000
  O2          0.42378      0.82248      0.74898  1.0000
  O2          0.17118      0.58233      0.08265  1.0000
  O2          0.42123      0.58518      0.41732  1.0000
  F           0.45612      0.91272      0.25298  1.0000
  F           0.09836      0.54313      0.58471  1.0000
  F           0.47786      0.51624      0.92756  1.0000
  F           0.55172      0.08264      0.74953  1.0000
  F           0.91727      0.42047      0.08970  1.0000
  F           0.55224      0.45280      0.41915  1.0000
