data_cif

_audit_creation_method             'generated by GULP'

_symmetry_space_group_name_H-M     'P 1'
_symmetry_Int_Tables_number        1
_symmetry_cell_setting             triclinic

_cell_length_a                       11.9607
_cell_length_b                       11.9496
_cell_length_c                       29.4651
_cell_angle_alpha                   89.5588
_cell_angle_beta                    90.2258
_cell_angle_gamma                  119.7837

loop_
_atom_site_label
_atom_site_fract_x
_atom_site_fract_y
_atom_site_fract_z
_atom_site_occupancy
  Si          0.69960      0.37570      0.03389  1.0000
  Si          0.62403      0.31678      0.36706  1.0000
  Si          0.68056      0.28318      0.69891  1.0000
  Si          0.30231      0.61286      0.53309  1.0000
  Si          0.38483      0.66607      0.86776  1.0000
  Si          0.33005      0.70129      0.19989  1.0000
  Si          0.38430      0.69839      0.30066  1.0000
  Si          0.32653      0.61540      0.97009  1.0000
  Si          0.30214      0.66048      0.63426  1.0000
  Si          0.62264      0.28405      0.79896  1.0000
  Si          0.67817      0.37071      0.46749  1.0000
  Si          0.70910      0.32450      0.13556  1.0000
  Ge          0.53089      0.42443      0.96650  1.0000
  Si          0.58744      0.10812      0.30213  1.0000
  Si          0.89010      0.45293      0.63375  1.0000
  Si          0.47323      0.57489      0.46794  1.0000
  Si          0.42085      0.87412      0.80053  1.0000
  Si          0.11958      0.53055      0.13476  1.0000
  Si          0.42062      0.52437      0.36623  1.0000
  Si          0.11337      0.57926      0.03342  1.0000
  Si          0.47291      0.86928      0.69935  1.0000
  Si          0.59651      0.45572      0.86739  1.0000
  Si          0.88965      0.40820      0.53194  1.0000
  Si          0.53661      0.11293      0.20045  1.0000
  Si          0.30955      0.38414      0.85462  1.0000
  Si          0.60806      0.90334      0.18589  1.0000
  Si          0.10000      0.69012      0.51945  1.0000
  Si          0.70159      0.59572      0.35229  1.0000
  Si          0.40452      0.08106      0.68364  1.0000
  Si          0.90413      0.29998      0.02007  1.0000
  Si          0.40079      0.29372      0.48265  1.0000
  Si          0.91096      0.60208      0.14930  1.0000
  Si          0.69962      0.08173      0.81540  1.0000
  Si          0.60947      0.69699      0.98877  1.0000
  Si          0.10000      0.38198      0.64737  1.0000
  Si          0.30758      0.89969      0.31586  1.0000
  Si          0.25182      0.32698      0.95682  1.0000
  Si          0.66487      0.90693      0.28655  1.0000
  Si          0.09176      0.73110      0.62057  1.0000
  Si          0.75171      0.65224      0.45296  1.0000
  Si          0.34158      0.07450      0.78377  1.0000
  Si          0.91845      0.25266      0.12061  1.0000
  Si          0.34297      0.24497      0.38191  1.0000
  Si          0.91251      0.65682      0.04837  1.0000
  Si          0.74997      0.07222      0.71502  1.0000
  Si          0.66985      0.73624      0.88556  1.0000
  Si          0.09262      0.33175      0.54625  1.0000
  Si          0.25838      0.91098      0.21526  1.0000
  Si          0.96692      0.11797      0.96948  1.0000
  Si          0.88294      0.84417      0.30181  1.0000
  Ge          0.15236      0.01404      0.63472  1.0000
  Si          0.03144      0.86976      0.46751  1.0000
  Si          0.12512      0.13886      0.80307  1.0000
  Si          0.85756      0.97323      0.13651  1.0000
  Si          0.12610      0.96509      0.36667  1.0000
  Si          0.85449      0.87991      0.03612  1.0000
  Si          0.03015      0.13698      0.70192  1.0000
  Si          0.88203      0.01865      0.86847  1.0000
  Si          0.15122      0.11334      0.53181  1.0000
  Si          0.97837      0.84844      0.20096  1.0000
  O2          0.93245      0.99927      0.00264  1.0000
  O2          0.00386      0.92410      0.33454  1.0000
  O3          0.06973      0.05030      0.67386  1.0000
  O2          0.07293      0.99187      0.49933  1.0000
  O2          0.00733      0.05967      0.83756  1.0000
  O2          0.93612      0.93177      0.17012  1.0000
  O2          0.34503      0.57427      0.33343  1.0000
  O2          0.42467      0.74336      0.66747  1.0000
  O2          0.23876      0.65412      0.00024  1.0000
  O2          0.66458      0.41038      0.82970  1.0000
  O2          0.58658      0.23993      0.16862  1.0000
  O2          0.76444      0.33223      0.49974  1.0000
  O3          0.57999      0.33754      0.00275  1.0000
  O2          0.76509      0.40546      0.66611  1.0000
  O2          0.66330      0.23276      0.33470  1.0000
  O2          0.42501      0.65216      0.50030  1.0000
  O2          0.24614      0.57987      0.16686  1.0000
  O2          0.34710      0.74896      0.83394  1.0000
  O2          0.11887      0.20933      0.97516  1.0000
  O2          0.79150      0.90713      0.30668  1.0000
  O3          0.08663      0.85058      0.64215  1.0000
  O2          0.87755      0.77834      0.47298  1.0000
  O2          0.21449      0.07259      0.80408  1.0000
  O2          0.91982      0.12706      0.14138  1.0000
  O2          0.21646      0.11958      0.36196  1.0000
  O2          0.91085      0.78350      0.02863  1.0000
  O2          0.87649      0.07383      0.69528  1.0000
  O2          0.79276      0.86385      0.86461  1.0000
  O2          0.09168      0.20750      0.52426  1.0000
  O2          0.13235      0.91213      0.19529  1.0000
  O2          0.93822      0.85690      0.25183  1.0000
  O3          0.12722      0.05958      0.58235  1.0000
  O2          0.92875      0.06313      0.91908  1.0000
  O2          0.06656      0.13431      0.75412  1.0000
  O2          0.87496      0.93271      0.08669  1.0000
  O2          0.07236      0.92170      0.41697  1.0000
  O2          0.89689      0.19949      0.98137  1.0000
  O2          0.80033      0.69249      0.31407  1.0000
  O3          0.31555      0.08691      0.64389  1.0000
  O2          0.10192      0.78908      0.48110  1.0000
  O2          0.21238      0.28898      0.81620  1.0000
  O2          0.70537      0.90339      0.14755  1.0000
  O2          0.20889      0.89658      0.35429  1.0000
  O2          0.70238      0.80818      0.02440  1.0000
  O2          0.10341      0.28591      0.68580  1.0000
  O2          0.79908      0.08558      0.85368  1.0000
  O2          0.30414      0.19417      0.52113  1.0000
  O2          0.90909      0.69837      0.18756  1.0000
  O2          0.32873      0.64250      0.25025  1.0000
  O2          0.35956      0.66520      0.58374  1.0000
  O2          0.32974      0.66423      0.91803  1.0000
  O2          0.68182      0.34020      0.74895  1.0000
  O2          0.65166      0.32515      0.08583  1.0000
  O2          0.67956      0.31433      0.41748  1.0000
  O3          0.36422      0.30854      0.97645  1.0000
  O2          0.67483      0.03885      0.30533  1.0000
  O2          0.95896      0.60798      0.63778  1.0000
  O2          0.62923      0.66218      0.47127  1.0000
  O2          0.33316      0.94295      0.80351  1.0000
  O2          0.05124      0.37433      0.13881  1.0000
  O2          0.33324      0.36817      0.36361  1.0000
  O2          0.04626      0.66864      0.02989  1.0000
  O2          0.62910      0.93834      0.69724  1.0000
  O2          0.67960      0.61443      0.86679  1.0000
  O2          0.96020      0.32242      0.52839  1.0000
  O2          0.38046      0.04409      0.19727  1.0000
  O2          0.77119      0.30061      0.01362  1.0000
  O2          0.69989      0.46075      0.34500  1.0000
  O2          0.53765      0.21549      0.67711  1.0000
  O2          0.23362      0.68930      0.51175  1.0000
  O2          0.31409      0.52096      0.84804  1.0000
  O2          0.47395      0.77027      0.17807  1.0000
  O2          0.30857      0.76571      0.32319  1.0000
  O2          0.47115      0.69292      0.99043  1.0000
  O2          0.23352      0.51564      0.65559  1.0000
  O2          0.69451      0.21320      0.82250  1.0000
  O2          0.53557      0.29478      0.49042  1.0000
  O2          0.77910      0.46734      0.15796  1.0000
  O2          0.78861      0.53227      0.02850  1.0000
  O2          0.46818      0.24405      0.36229  1.0000
  O2          0.75126      0.19812      0.69460  1.0000
  O2          0.21932      0.45759      0.52751  1.0000
  O2          0.53919      0.72905      0.86722  1.0000
  O2          0.25751      0.78514      0.19551  1.0000
  O2          0.54015      0.77944      0.30588  1.0000
  O2          0.26221      0.46110      0.97388  1.0000
  O2          0.21957      0.73361      0.63994  1.0000
  O2          0.46603      0.20324      0.80239  1.0000
  O2          0.75311      0.52666      0.47272  1.0000
  O2          0.79186      0.25072      0.14022  1.0000
  O2          0.24175      0.31584      0.90168  1.0000
  O2          0.68262      0.90643      0.23227  1.0000
  O2          0.09709      0.75898      0.56630  1.0000
  O2          0.77107      0.66979      0.39868  1.0000
  O2          0.32335      0.07328      0.72919  1.0000
  O2          0.91458      0.23143      0.06637  1.0000
  O2          0.32612      0.22462      0.43629  1.0000
  O2          0.91180      0.67487      0.10269  1.0000
  O2          0.76941      0.07640      0.76932  1.0000
  O2          0.68206      0.75200      0.93973  1.0000
  O2          0.09635      0.31003      0.60053  1.0000
  O2          0.23822      0.90692      0.26957  1.0000
  O3          0.60070      0.56550      0.00220  1.0000
  O2          0.44639      0.02452      0.32532  1.0000
  O2          0.97293      0.39293      0.65646  1.0000
  O2          0.41501      0.43337      0.49148  1.0000
  O2          0.56141      0.95451      0.82423  1.0000
  O2          0.03826      0.59062      0.15805  1.0000
  O2          0.56201      0.58137      0.34351  1.0000
  O2          0.03077      0.43845      0.01005  1.0000
  O2          0.41778      0.95469      0.67547  1.0000
  O2          0.45054      0.40251      0.84771  1.0000
  O2          0.97407      0.55175      0.51046  1.0000
  O2          0.59362      0.02893      0.17732  1.0000
  O2          0.58840      0.16352      0.25151  1.0000
  O2          0.83598      0.40299      0.58297  1.0000
  O3          0.60316      0.40153      0.91578  1.0000
  O2          0.41871      0.81724      0.75037  1.0000
  O2          0.17253      0.58233      0.08360  1.0000
  O2          0.42037      0.57638      0.41713  1.0000
  F           0.45855      0.90219      0.25151  1.0000
  F           0.09889      0.53584      0.58406  1.0000
  F           0.47751      0.51550      0.92877  1.0000
  F           0.54676      0.07725      0.75006  1.0000
  F           0.91682      0.45497      0.08510  1.0000
  F           0.55111      0.44472      0.41820  1.0000
