data_cif

_audit_creation_method             'generated by GULP'

_symmetry_space_group_name_H-M     'P 1'
_symmetry_Int_Tables_number        1
_symmetry_cell_setting             triclinic

_cell_length_a                       11.9639
_cell_length_b                       11.9320
_cell_length_c                       29.4607
_cell_angle_alpha                   89.6630
_cell_angle_beta                    90.0545
_cell_angle_gamma                  119.6451

loop_
_atom_site_label
_atom_site_fract_x
_atom_site_fract_y
_atom_site_fract_z
_atom_site_occupancy
  Si          0.69960      0.37570      0.03389  1.0000
  Si          0.63122      0.32057      0.36786  1.0000
  Si          0.68047      0.28415      0.69860  1.0000
  Si          0.30061      0.61114      0.53437  1.0000
  Si          0.38686      0.66618      0.86788  1.0000
  Si          0.32922      0.70278      0.19986  1.0000
  Si          0.38613      0.69857      0.30011  1.0000
  Si          0.32741      0.61523      0.97012  1.0000
  Si          0.30007      0.66443      0.63504  1.0000
  Si          0.62621      0.28552      0.79924  1.0000
  Si          0.67903      0.36926      0.46887  1.0000
  Si          0.70840      0.32495      0.13572  1.0000
  Ge          0.53129      0.42423      0.96641  1.0000
  Si          0.58979      0.11122      0.30245  1.0000
  Si          0.89134      0.45994      0.63480  1.0000
  Si          0.47301      0.57411      0.46903  1.0000
  Si          0.42493      0.87567      0.80115  1.0000
  Si          0.11948      0.53119      0.13454  1.0000
  Si          0.42708      0.53070      0.36704  1.0000
  Si          0.11350      0.57919      0.03318  1.0000
  Si          0.47487      0.87265      0.69967  1.0000
  Si          0.59780      0.45604      0.86733  1.0000
  Si          0.88980      0.40747      0.53328  1.0000
  Si          0.53544      0.11466      0.20100  1.0000
  Si          0.31096      0.38416      0.85420  1.0000
  Si          0.60700      0.90515      0.18495  1.0000
  Si          0.09879      0.68802      0.51933  1.0000
  Si          0.70766      0.59976      0.35462  1.0000
  Si          0.40319      0.08280      0.68541  1.0000
  Si          0.90451      0.30016      0.02002  1.0000
  Si          0.40046      0.29145      0.48240  1.0000
  Si          0.91064      0.60252      0.14889  1.0000
  Si          0.70333      0.08335      0.81479  1.0000
  Si          0.60996      0.69712      0.98888  1.0000
  Si          0.09902      0.38658      0.64990  1.0000
  Si          0.31163      0.90078      0.31718  1.0000
  Si          0.25264      0.32662      0.95648  1.0000
  Si          0.66448      0.90825      0.28541  1.0000
  Si          0.09173      0.73809      0.62001  1.0000
  Si          0.75193      0.65122      0.45573  1.0000
  Si          0.34570      0.07665      0.78608  1.0000
  Si          0.91838      0.25351      0.12060  1.0000
  Si          0.35111      0.25140      0.38112  1.0000
  Si          0.91235      0.65674      0.04800  1.0000
  Si          0.75269      0.07397      0.71419  1.0000
  Si          0.67145      0.73682      0.88570  1.0000
  Si          0.09186      0.33053      0.54924  1.0000
  Si          0.25786      0.91313      0.21713  1.0000
  Si          0.96796      0.11823      0.96921  1.0000
  Si          0.88238      0.84614      0.30184  1.0000
  Si          0.15563      0.01880      0.63601  1.0000
  Si          0.02886      0.86953      0.47073  1.0000
  Si          0.12742      0.13863      0.80299  1.0000
  Si          0.85727      0.97390      0.13628  1.0000
  Ge          0.12896      0.96930      0.36789  1.0000
  Si          0.85460      0.88021      0.03590  1.0000
  Si          0.03355      0.13920      0.70171  1.0000
  Si          0.88385      0.01896      0.86819  1.0000
  Si          0.15410      0.11271      0.53501  1.0000
  Si          0.97769      0.84889      0.20095  1.0000
  O2          0.93258      0.99918      0.00230  1.0000
  O3          0.00087      0.93240      0.33330  1.0000
  O2          0.07926      0.05959      0.67076  1.0000
  O2          0.07068      0.98694      0.50535  1.0000
  O2          0.00855      0.05965      0.83697  1.0000
  O2          0.93536      0.93217      0.17000  1.0000
  O2          0.34985      0.57669      0.33353  1.0000
  O2          0.42365      0.74694      0.66757  1.0000
  O2          0.23906      0.65396      0.00011  1.0000
  O2          0.66803      0.41244      0.82974  1.0000
  O2          0.58583      0.24147      0.16894  1.0000
  O2          0.76409      0.32998      0.50147  1.0000
  O3          0.58018      0.33745      0.00283  1.0000
  O2          0.76421      0.40863      0.66650  1.0000
  O2          0.66890      0.23576      0.33493  1.0000
  O2          0.42343      0.64956      0.50180  1.0000
  O2          0.24584      0.58191      0.16663  1.0000
  O2          0.35039      0.75011      0.83419  1.0000
  O2          0.11972      0.20911      0.97480  1.0000
  O2          0.78897      0.90686      0.30569  1.0000
  O2          0.09065      0.86406      0.63998  1.0000
  O2          0.87547      0.77604      0.47713  1.0000
  O2          0.21830      0.07421      0.80639  1.0000
  O2          0.91964      0.12775      0.14137  1.0000
  O3          0.22768      0.13218      0.35940  1.0000
  O2          0.91068      0.78340      0.02819  1.0000
  O2          0.87981      0.07406      0.69488  1.0000
  O2          0.79437      0.86415      0.86469  1.0000
  O2          0.09180      0.20476      0.52873  1.0000
  O2          0.13210      0.91407      0.19690  1.0000
  O2          0.93470      0.85370      0.25159  1.0000
  O2          0.14416      0.06655      0.58655  1.0000
  O2          0.93053      0.06386      0.91874  1.0000
  O2          0.07077      0.12904      0.75318  1.0000
  O2          0.87570      0.93346      0.08647  1.0000
  O3          0.06586      0.93034      0.42158  1.0000
  O2          0.89785      0.19982      0.98125  1.0000
  O2          0.80655      0.69587      0.31653  1.0000
  O2          0.30697      0.08461      0.64706  1.0000
  O2          0.09998      0.78645      0.48074  1.0000
  O2          0.21338      0.28950      0.81566  1.0000
  O2          0.70470      0.90509      0.14664  1.0000
  O3          0.21540      0.89291      0.35687  1.0000
  O2          0.70256      0.80842      0.02450  1.0000
  O2          0.10118      0.29024      0.68874  1.0000
  O2          0.80228      0.08686      0.85304  1.0000
  O2          0.30381      0.19167      0.52058  1.0000
  O2          0.90953      0.69943      0.18702  1.0000
  O2          0.33004      0.64262      0.24978  1.0000
  O2          0.35739      0.66623      0.58472  1.0000
  O2          0.33134      0.66438      0.91810  1.0000
  O2          0.68190      0.34054      0.74881  1.0000
  O2          0.65169      0.32565      0.08592  1.0000
  O2          0.68377      0.31551      0.41855  1.0000
  O3          0.36483      0.30810      0.97614  1.0000
  O2          0.67592      0.04058      0.30457  1.0000
  O2          0.95953      0.61603      0.63858  1.0000
  O2          0.62842      0.66029      0.47341  1.0000
  O2          0.33736      0.94457      0.80503  1.0000
  O2          0.05106      0.37491      0.13882  1.0000
  O2          0.34150      0.37548      0.36422  1.0000
  O2          0.04625      0.66859      0.02960  1.0000
  O2          0.63091      0.94066      0.69660  1.0000
  O2          0.68110      0.61466      0.86707  1.0000
  O2          0.95960      0.32039      0.53080  1.0000
  O2          0.37939      0.04589      0.19855  1.0000
  O2          0.77147      0.30046      0.01368  1.0000
  O2          0.70772      0.46554      0.34679  1.0000
  O2          0.53666      0.21599      0.67725  1.0000
  O2          0.23245      0.68713      0.51208  1.0000
  O2          0.31577      0.52133      0.84791  1.0000
  O2          0.47237      0.77286      0.17742  1.0000
  O2          0.31102      0.76568      0.32299  1.0000
  O2          0.47143      0.69263      0.99066  1.0000
  O2          0.23186      0.52079      0.65749  1.0000
  O2          0.69979      0.21575      0.82223  1.0000
  O2          0.53530      0.29290      0.49070  1.0000
  O2          0.77892      0.46818      0.15786  1.0000
  O2          0.78875      0.53213      0.02826  1.0000
  O2          0.47650      0.24959      0.36206  1.0000
  O2          0.75207      0.19930      0.69374  1.0000
  O2          0.21821      0.45545      0.52983  1.0000
  O2          0.54095      0.72928      0.86727  1.0000
  O2          0.25572      0.78616      0.19743  1.0000
  O2          0.54126      0.78006      0.30464  1.0000
  O2          0.26296      0.46083      0.97375  1.0000
  O2          0.21830      0.73934      0.63983  1.0000
  O2          0.47028      0.20440      0.80472  1.0000
  O2          0.75275      0.52482      0.47499  1.0000
  O2          0.79163      0.25145      0.14029  1.0000
  O2          0.24319      0.31573      0.90129  1.0000
  O2          0.68176      0.90820      0.23109  1.0000
  O2          0.09356      0.75776      0.56569  1.0000
  O2          0.77593      0.67174      0.40151  1.0000
  O2          0.32808      0.07798      0.73179  1.0000
  O2          0.91492      0.23184      0.06637  1.0000
  O2          0.32960      0.22312      0.43545  1.0000
  O2          0.91120      0.67508      0.10229  1.0000
  O2          0.77298      0.07831      0.76846  1.0000
  O2          0.68280      0.75265      0.93989  1.0000
  O2          0.09421      0.31207      0.60361  1.0000
  O2          0.23928      0.91130      0.27177  1.0000
  O3          0.60113      0.56540      0.00215  1.0000
  O2          0.44984      0.02682      0.32633  1.0000
  O2          0.97353      0.40080      0.65867  1.0000
  O2          0.41235      0.43047      0.49098  1.0000
  O2          0.56591      0.95596      0.82423  1.0000
  O2          0.03808      0.59155      0.15768  1.0000
  O2          0.56977      0.58863      0.34543  1.0000
  O2          0.03099      0.43837      0.00986  1.0000
  O2          0.41792      0.95756      0.67665  1.0000
  O2          0.45225      0.40312      0.84736  1.0000
  O2          0.97459      0.54884      0.51023  1.0000
  O2          0.59186      0.03070      0.17712  1.0000
  O2          0.58839      0.16600      0.25190  1.0000
  O2          0.83782      0.40817      0.58416  1.0000
  O3          0.60345      0.40097      0.91566  1.0000
  O2          0.42238      0.81975      0.75076  1.0000
  O2          0.17246      0.58226      0.08333  1.0000
  O2          0.42429      0.58123      0.41806  1.0000
  F           0.45758      0.90445      0.25188  1.0000
  F           0.09807      0.53766      0.58520  1.0000
  F           0.47831      0.51574      0.92877  1.0000
  F           0.55101      0.07953      0.75079  1.0000
  F           0.91709      0.45532      0.08498  1.0000
  F           0.55471      0.44674      0.41900  1.0000
