data_cif

_audit_creation_method             'generated by GULP'

_symmetry_space_group_name_H-M     'P 1'
_symmetry_Int_Tables_number        1
_symmetry_cell_setting             triclinic

_cell_length_a                       11.9606
_cell_length_b                       11.9312
_cell_length_c                       29.4773
_cell_angle_alpha                   89.5958
_cell_angle_beta                    90.2852
_cell_angle_gamma                  119.6363

loop_
_atom_site_label
_atom_site_fract_x
_atom_site_fract_y
_atom_site_fract_z
_atom_site_occupancy
  Si          0.69960      0.37570      0.03389  1.0000
  Si          0.62324      0.31699      0.36723  1.0000
  Si          0.67978      0.28215      0.69694  1.0000
  Si          0.30142      0.61122      0.53349  1.0000
  Si          0.37943      0.66261      0.86755  1.0000
  Si          0.32785      0.70008      0.20056  1.0000
  Si          0.38325      0.69885      0.30131  1.0000
  Si          0.32662      0.61575      0.97007  1.0000
  Si          0.30005      0.66310      0.63423  1.0000
  Si          0.62381      0.28649      0.79694  1.0000
  Si          0.67839      0.37014      0.46762  1.0000
  Si          0.70756      0.32353      0.13560  1.0000
  Ge          0.53116      0.42391      0.96567  1.0000
  Si          0.58554      0.10813      0.30220  1.0000
  Si          0.89044      0.45782      0.63306  1.0000
  Si          0.47368      0.57452      0.46860  1.0000
  Si          0.42213      0.87308      0.80035  1.0000
  Si          0.11792      0.52865      0.13536  1.0000
  Si          0.42041      0.52530      0.36692  1.0000
  Si          0.11404      0.57881      0.03400  1.0000
  Si          0.47455      0.87076      0.69911  1.0000
  Si          0.59148      0.45075      0.86647  1.0000
  Si          0.89037      0.40749      0.53155  1.0000
  Si          0.53429      0.11261      0.20055  1.0000
  Si          0.30477      0.38080      0.85436  1.0000
  Si          0.60511      0.90199      0.18650  1.0000
  Si          0.09940      0.68808      0.51835  1.0000
  Si          0.70091      0.59612      0.35298  1.0000
  Si          0.40217      0.07997      0.68289  1.0000
  Si          0.90445      0.30006      0.02041  1.0000
  Si          0.40126      0.29309      0.48290  1.0000
  Si          0.90965      0.60100      0.14978  1.0000
  Si          0.69931      0.08409      0.81436  1.0000
  Si          0.61103      0.69854      0.98711  1.0000
  Si          0.09864      0.38522      0.64807  1.0000
  Si          0.30622      0.90050      0.31636  1.0000
  Si          0.25215      0.32689      0.95693  1.0000
  Si          0.66332      0.90663      0.28700  1.0000
  Si          0.09102      0.73603      0.61900  1.0000
  Si          0.75198      0.65224      0.45363  1.0000
  Si          0.34530      0.07519      0.78337  1.0000
  Si          0.91684      0.25112      0.12084  1.0000
  Si          0.34260      0.24552      0.38218  1.0000
  Si          0.91268      0.65615      0.04889  1.0000
  Si          0.75229      0.07217      0.71448  1.0000
  Si          0.66443      0.73140      0.88372  1.0000
  Si          0.09239      0.33021      0.54747  1.0000
  Si          0.25672      0.91079      0.21571  1.0000
  Si          0.96934      0.11791      0.97124  1.0000
  Si          0.88195      0.84425      0.30254  1.0000
  Si          0.15339      0.01596      0.63399  1.0000
  Si          0.03157      0.86977      0.46802  1.0000
  Si          0.12764      0.13689      0.80108  1.0000
  Si          0.85407      0.97056      0.13738  1.0000
  Si          0.12513      0.96635      0.36734  1.0000
  Si          0.85402      0.87889      0.03691  1.0000
  Si          0.03301      0.13775      0.69987  1.0000
  Ge          0.88086      0.01654      0.86773  1.0000
  Si          0.15394      0.11187      0.53316  1.0000
  Si          0.97658      0.84726      0.20175  1.0000
  O2          0.93663      0.00295      0.00617  1.0000
  O2          0.00229      0.92466      0.33546  1.0000
  O2          0.07782      0.05833      0.66840  1.0000
  O2          0.07374      0.99001      0.50113  1.0000
  O3          0.01178      0.05367      0.83424  1.0000
  O2          0.93294      0.93059      0.17149  1.0000
  O2          0.34446      0.57526      0.33426  1.0000
  O2          0.42344      0.74480      0.66709  1.0000
  O2          0.23963      0.65387      0.00103  1.0000
  O2          0.66284      0.41152      0.82805  1.0000
  O2          0.58478      0.23926      0.16848  1.0000
  O2          0.76480      0.33084      0.49957  1.0000
  O3          0.58079      0.33822      0.00243  1.0000
  O2          0.76307      0.40548      0.66446  1.0000
  O2          0.66207      0.23298      0.33463  1.0000
  O2          0.42471      0.65072      0.50120  1.0000
  O2          0.24403      0.57810      0.16772  1.0000
  O2          0.34524      0.74787      0.83342  1.0000
  O2          0.12104      0.21120      0.97674  1.0000
  O2          0.79032      0.90732      0.30702  1.0000
  O2          0.08923      0.86152      0.63909  1.0000
  O2          0.87786      0.77858      0.47349  1.0000
  O2          0.21994      0.07440      0.80376  1.0000
  O2          0.91731      0.12475      0.14138  1.0000
  O2          0.21575      0.12067      0.36219  1.0000
  O2          0.91066      0.78261      0.02897  1.0000
  O2          0.87860      0.07181      0.69472  1.0000
  O3          0.78302      0.85293      0.86053  1.0000
  O2          0.09180      0.20416      0.52703  1.0000
  O2          0.13033      0.91135      0.19573  1.0000
  O2          0.93777      0.85561      0.25279  1.0000
  O2          0.13835      0.05918      0.58406  1.0000
  O3          0.93328      0.05679      0.92207  1.0000
  O2          0.07282      0.12991      0.75103  1.0000
  O2          0.86869      0.92488      0.08820  1.0000
  O2          0.07237      0.92536      0.41787  1.0000
  O2          0.89825      0.19988      0.98165  1.0000
  O2          0.79949      0.69279      0.31489  1.0000
  O2          0.30552      0.08185      0.64448  1.0000
  O2          0.10133      0.78699      0.47989  1.0000
  O2          0.20785      0.28709      0.81558  1.0000
  O2          0.70224      0.90190      0.14826  1.0000
  O2          0.20771      0.89743      0.35485  1.0000
  O2          0.70383      0.80988      0.02270  1.0000
  O2          0.10020      0.28835      0.68671  1.0000
  O3          0.79639      0.09331      0.85378  1.0000
  O2          0.30527      0.19339      0.52123  1.0000
  O2          0.90763      0.69724      0.18811  1.0000
  O2          0.32731      0.64217      0.25100  1.0000
  O2          0.35755      0.66531      0.58404  1.0000
  O2          0.32653      0.66350      0.91798  1.0000
  O2          0.67959      0.34092      0.74656  1.0000
  O2          0.65102      0.32461      0.08571  1.0000
  O2          0.67927      0.31406      0.41750  1.0000
  O3          0.36517      0.30868      0.97608  1.0000
  O2          0.67309      0.03886      0.30551  1.0000
  O2          0.95869      0.61384      0.63725  1.0000
  O2          0.62944      0.66191      0.47206  1.0000
  O2          0.33574      0.94326      0.80305  1.0000
  O2          0.04954      0.37232      0.13931  1.0000
  O2          0.33300      0.36916      0.36418  1.0000
  O2          0.04653      0.66810      0.03051  1.0000
  O2          0.63060      0.93891      0.69660  1.0000
  O2          0.67425      0.60836      0.86667  1.0000
  O2          0.96013      0.32040      0.52897  1.0000
  O2          0.37823      0.04369      0.19745  1.0000
  O2          0.77165      0.30083      0.01359  1.0000
  O2          0.69903      0.46102      0.34536  1.0000
  O2          0.53634      0.21248      0.67501  1.0000
  O2          0.23320      0.68749      0.51140  1.0000
  O2          0.30702      0.51696      0.84827  1.0000
  O2          0.47136      0.76888      0.17869  1.0000
  O2          0.30758      0.76654      0.32371  1.0000
  O2          0.47204      0.69337      0.98952  1.0000
  O2          0.23137      0.51912      0.65632  1.0000
  O2          0.69715      0.21745      0.82026  1.0000
  O2          0.53612      0.29415      0.49049  1.0000
  O2          0.77759      0.46647      0.15802  1.0000
  O2          0.78884      0.53209      0.02890  1.0000
  O2          0.46756      0.24453      0.36243  1.0000
  O2          0.75265      0.19817      0.69403  1.0000
  O2          0.21876      0.45556      0.52844  1.0000
  O2          0.53264      0.72313      0.86628  1.0000
  O2          0.25553      0.78438      0.19614  1.0000
  O2          0.53893      0.77960      0.30648  1.0000
  O2          0.26333      0.46171      0.97367  1.0000
  O2          0.21778      0.73754      0.63900  1.0000
  O2          0.46837      0.20431      0.80179  1.0000
  O2          0.75328      0.52617      0.47316  1.0000
  O2          0.79027      0.24951      0.14031  1.0000
  O2          0.23811      0.31313      0.90171  1.0000
  O2          0.68026      0.90525      0.23276  1.0000
  O2          0.09340      0.75688      0.56475  1.0000
  O2          0.77071      0.66989      0.39938  1.0000
  O2          0.32726      0.07514      0.72909  1.0000
  O2          0.91388      0.23056      0.06661  1.0000
  O2          0.32643      0.22458      0.43651  1.0000
  O2          0.91162      0.67424      0.10317  1.0000
  O2          0.77180      0.07525      0.76900  1.0000
  O2          0.68091      0.75482      0.93784  1.0000
  O2          0.09472      0.31126      0.60179  1.0000
  O2          0.23701      0.90767      0.27000  1.0000
  O3          0.60419      0.56748      0.00023  1.0000
  O2          0.44497      0.02524      0.32559  1.0000
  O2          0.97256      0.39830      0.65678  1.0000
  O2          0.41533      0.43275      0.49188  1.0000
  O2          0.56267      0.95503      0.82384  1.0000
  O2          0.03646      0.58869      0.15866  1.0000
  O2          0.56155      0.58234      0.34422  1.0000
  O2          0.03128      0.43821      0.01051  1.0000
  O2          0.41773      0.95490      0.67514  1.0000
  O2          0.44525      0.39840      0.84715  1.0000
  O2          0.97515      0.54921      0.50888  1.0000
  O2          0.59085      0.02779      0.17767  1.0000
  O2          0.58599      0.16339      0.25159  1.0000
  O2          0.83756      0.40717      0.58227  1.0000
  O3          0.59839      0.39558      0.91470  1.0000
  O2          0.42122      0.81761      0.75005  1.0000
  O2          0.17185      0.58089      0.08435  1.0000
  O2          0.42065      0.57704      0.41790  1.0000
  F           0.45688      0.90202      0.25191  1.0000
  F           0.09786      0.53654      0.58399  1.0000
  F           0.47645      0.51428      0.92797  1.0000
  F           0.55121      0.07777      0.74972  1.0000
  F           0.91638      0.45382      0.08541  1.0000
  F           0.55124      0.44505      0.41860  1.0000
