data_cif

_audit_creation_method             'generated by GULP'

_symmetry_space_group_name_H-M     'P 1'
_symmetry_Int_Tables_number        1
_symmetry_cell_setting             triclinic

_cell_length_a                       11.9660
_cell_length_b                       12.0100
_cell_length_c                       29.3115
_cell_angle_alpha                   89.9997
_cell_angle_beta                    90.0001
_cell_angle_gamma                  120.2581

loop_
_atom_site_label
_atom_site_fract_x
_atom_site_fract_y
_atom_site_fract_z
_atom_site_occupancy
  Si          0.69960      0.37570      0.03389  1.0000
  Si          0.63359      0.32354      0.36461  1.0000
  Si          0.69506      0.30888      0.70008  1.0000
  Si          0.31319      0.63389      0.53389  1.0000
  Si          0.37917      0.68602      0.86461  1.0000
  Si          0.31770      0.70069      0.20008  1.0000
  Si          0.36838      0.69904      0.30117  1.0000
  Si          0.31819      0.61812      0.96704  1.0000
  Si          0.31305      0.68804      0.63498  1.0000
  Si          0.64438      0.31052      0.80117  1.0000
  Si          0.69458      0.39145      0.46704  1.0000
  Si          0.69972      0.32153      0.13498  1.0000
  Si          0.52823      0.41162      0.96704  1.0000
  Si          0.58096      0.10377      0.30224  1.0000
  Si          0.90444      0.48230      0.63488  1.0000
  Si          0.48455      0.59795      0.46704  1.0000
  Si          0.43180      0.90579      0.80224  1.0000
  Si          0.10832      0.52727      0.13489  1.0000
  Si          0.41814      0.53635      0.36385  1.0000
  Si          0.10785      0.57851      0.03279  1.0000
  Si          0.48350      0.89951      0.70050  1.0000
  Si          0.59462      0.47322      0.86385  1.0000
  Si          0.90493      0.43106      0.53279  1.0000
  Si          0.52926      0.11006      0.20050  1.0000
  Ge          0.32122      0.41680      0.85769  1.0000
  Si          0.59773      0.89954      0.18649  1.0000
  Si          0.11351      0.71181      0.51874  1.0000
  Ge          0.69154      0.59277      0.35769  1.0000
  Si          0.41503      0.11003      0.68649  1.0000
  Si          0.89927      0.29777      0.01874  1.0000
  Si          0.41292      0.31362      0.48266  1.0000
  Si          0.90067      0.60086      0.15018  1.0000
  Si          0.71600      0.10739      0.81613  1.0000
  Si          0.59985      0.69595      0.98266  1.0000
  Si          0.11210      0.40871      0.65018  1.0000
  Si          0.29676      0.90217      0.31613  1.0000
  Si          0.24406      0.33080      0.95351  1.0000
  Si          0.65502      0.90074      0.28765  1.0000
  Si          0.10515      0.76183      0.61999  1.0000
  Si          0.76871      0.67877      0.45351  1.0000
  Si          0.35774      0.10882      0.78765  1.0000
  Si          0.90761      0.24774      0.11999  1.0000
  Si          0.34778      0.25626      0.38069  1.0000
  Si          0.90787      0.65633      0.04868  1.0000
  Si          0.76424      0.09915      0.71489  1.0000
  Si          0.66498      0.75330      0.88069  1.0000
  Si          0.10491      0.35326      0.54868  1.0000
  Si          0.24852      0.91042      0.21489  1.0000
  Si          0.96814      0.11768      0.97005  1.0000
  Si          0.87643      0.84226      0.30377  1.0000
  Si          0.16649      0.04120      0.63595  1.0000
  Si          0.04463      0.89189      0.47005  1.0000
  Si          0.13633      0.16731      0.80377  1.0000
  Si          0.84627      0.96837      0.13595  1.0000
  Si          0.12268      0.97642      0.36715  1.0000
  Si          0.84612      0.87335      0.03487  1.0000
  Si          0.04398      0.16080      0.70159  1.0000
  Si          0.89008      0.03315      0.86715  1.0000
  Si          0.16664      0.13623      0.53487  1.0000
  Si          0.96878      0.84877      0.20159  1.0000
  O2          0.92269      0.99451      0.00207  1.0000
  O2          0.00038      0.93677      0.33517  1.0000
  O2          0.08645      0.08131      0.66892  1.0000
  O2          0.09007      0.01507      0.50207  1.0000
  O2          0.01238      0.07280      0.83517  1.0000
  O2          0.92631      0.92826      0.16892  1.0000
  O2          0.32774      0.57610      0.33457  1.0000
  O2          0.43507      0.77356      0.66822  1.0000
  O2          0.23396      0.65560      0.00011  1.0000
  O2          0.68502      0.43347      0.83456  1.0000
  O2          0.57769      0.23601      0.16821  1.0000
  O2          0.77881      0.35397      0.50011  1.0000
  O2          0.57711      0.33769      0.00047  1.0000
  O2          0.77833      0.43212      0.66712  1.0000
  O2          0.66149      0.22522      0.33609  1.0000
  O2          0.43568      0.67190      0.50047  1.0000
  O2          0.23444      0.57745      0.16713  1.0000
  O2          0.35127      0.78434      0.83609  1.0000
  O2          0.12122      0.21092      0.97901  1.0000
  O2          0.77796      0.89843      0.30878  1.0000
  O2          0.10388      0.88686      0.64025  1.0000
  O2          0.89155      0.79864      0.47901  1.0000
  O2          0.23479      0.11114      0.80878  1.0000
  O2          0.90888      0.12271      0.14025  1.0000
  O2          0.22042      0.13033      0.36143  1.0000
  O2          0.90902      0.78299      0.02858  1.0000
  O2          0.88970      0.09813      0.69447  1.0000
  O2          0.79234      0.87924      0.86143  1.0000
  O2          0.10376      0.22660      0.52858  1.0000
  O2          0.12306      0.91144      0.19447  1.0000
  O2          0.93205      0.86380      0.25230  1.0000
  O2          0.15364      0.08381      0.58551  1.0000
  O2          0.93642      0.06562      0.91898  1.0000
  O2          0.08071      0.14577      0.75230  1.0000
  O2          0.85912      0.92576      0.08551  1.0000
  O2          0.07634      0.94395      0.41898  1.0000
  O2          0.89560      0.19781      0.98052  1.0000
  O3          0.80483      0.69614      0.31547  1.0000
  O2          0.31854      0.11088      0.64762  1.0000
  O2          0.11717      0.81177      0.48052  1.0000
  O3          0.20793      0.31342      0.81547  1.0000
  O2          0.69422      0.89869      0.14762  1.0000
  O2          0.20065      0.90307      0.35493  1.0000
  O2          0.69359      0.78921      0.02246  1.0000
  O2          0.11378      0.31255      0.68864  1.0000
  O2          0.81211      0.10650      0.85493  1.0000
  O2          0.31918      0.22035      0.52246  1.0000
  O2          0.89898      0.69702      0.18864  1.0000
  O2          0.31341      0.64165      0.25053  1.0000
  O2          0.37165      0.69072      0.58434  1.0000
  O2          0.32228      0.67541      0.91659  1.0000
  O2          0.69935      0.36792      0.75053  1.0000
  O2          0.64113      0.31887      0.08434  1.0000
  O2          0.69048      0.33415      0.41659  1.0000
  O2          0.37197      0.32562      0.96972  1.0000
  O2          0.66690      0.03458      0.30492  1.0000
  O2          0.97228      0.63820      0.63781  1.0000
  O2          0.64081      0.68395      0.46971  1.0000
  O2          0.34586      0.97498      0.80492  1.0000
  O2          0.04048      0.37136      0.13781  1.0000
  O2          0.33767      0.37890      0.36386  1.0000
  O2          0.03939      0.66579      0.02935  1.0000
  O2          0.63997      0.96752      0.69662  1.0000
  O2          0.67509      0.63066      0.86386  1.0000
  O2          0.97339      0.34379      0.52934  1.0000
  O2          0.37279      0.04205      0.19662  1.0000
  O2          0.76641      0.30015      0.01101  1.0000
  O3          0.70788      0.45935      0.34018  1.0000
  O2          0.55115      0.24151      0.67780  1.0000
  O2          0.24638      0.70944      0.51101  1.0000
  O3          0.30488      0.55022      0.84018  1.0000
  O2          0.46161      0.76806      0.17780  1.0000
  O2          0.29306      0.76681      0.32335  1.0000
  O2          0.46371      0.69158      0.98788  1.0000
  O2          0.24590      0.54433      0.65692  1.0000
  O2          0.71969      0.24275      0.82335  1.0000
  O2          0.54906      0.31799      0.48788  1.0000
  O2          0.76686      0.46524      0.15692  1.0000
  O2          0.77945      0.53197      0.02906  1.0000
  O2          0.47612      0.26006      0.36239  1.0000
  O2          0.76828      0.22658      0.69500  1.0000
  O2          0.23334      0.47762      0.52906  1.0000
  O2          0.53664      0.74950      0.86239  1.0000
  O2          0.24448      0.78299      0.19500  1.0000
  O2          0.52440      0.77902      0.30694  1.0000
  O2          0.25155      0.46341      0.97072  1.0000
  O2          0.23048      0.76105      0.63965  1.0000
  O2          0.48836      0.23055      0.80693  1.0000
  O2          0.76122      0.54616      0.47072  1.0000
  O2          0.78229      0.24852      0.13965  1.0000
  O3          0.21692      0.30614      0.90069  1.0000
  O2          0.67058      0.89885      0.23284  1.0000
  O2          0.10880      0.78147      0.56539  1.0000
  O3          0.79584      0.70342      0.40069  1.0000
  O2          0.34218      0.11072      0.73283  1.0000
  O2          0.90397      0.22810      0.06539  1.0000
  O2          0.34114      0.24624      0.43567  1.0000
  O2          0.90649      0.67451      0.10318  1.0000
  O2          0.78440      0.10046      0.76945  1.0000
  O2          0.67163      0.76333      0.93567  1.0000
  O2          0.10629      0.33506      0.60318  1.0000
  O2          0.22836      0.90911      0.26945  1.0000
  O2          0.57852      0.55376      0.98790  1.0000
  O2          0.43864      0.02462      0.32539  1.0000
  O2          0.98827      0.42561      0.65832  1.0000
  O2          0.43424      0.45580      0.48790  1.0000
  O2          0.57412      0.98495      0.82539  1.0000
  O2          0.02449      0.58395      0.15832  1.0000
  O3          0.55276      0.59534      0.33782  1.0000
  O2          0.02567      0.43711      0.00941  1.0000
  O2          0.42507      0.98262      0.67777  1.0000
  O3          0.46001      0.41423      0.83782  1.0000
  O2          0.98710      0.57246      0.50941  1.0000
  O2          0.58769      0.02695      0.17777  1.0000
  O2          0.58204      0.16142      0.25180  1.0000
  O2          0.85096      0.42923      0.58376  1.0000
  O2          0.58269      0.41757      0.91596  1.0000
  O2          0.43072      0.84815      0.75180  1.0000
  O2          0.16181      0.58035      0.08376  1.0000
  O2          0.43007      0.59200      0.41596  1.0000
  F           0.44579      0.90025      0.25062  1.0000
  F           0.11246      0.56004      0.58278  1.0000
  F           0.42648      0.52046      0.90625  1.0000
  F           0.56697      0.10931      0.75062  1.0000
  F           0.90031      0.44953      0.08278  1.0000
  F           0.58629      0.48911      0.40625  1.0000
