data_cif

_audit_creation_method             'generated by GULP'

_symmetry_space_group_name_H-M     'P 1'
_symmetry_Int_Tables_number        1
_symmetry_cell_setting             triclinic

_cell_length_a                       11.9656
_cell_length_b                       11.9745
_cell_length_c                       29.3068
_cell_angle_alpha                   90.6645
_cell_angle_beta                    90.0004
_cell_angle_gamma                  119.9756

loop_
_atom_site_label
_atom_site_fract_x
_atom_site_fract_y
_atom_site_fract_z
_atom_site_occupancy
  Si          0.69960      0.37570      0.03389  1.0000
  Si          0.62640      0.31892      0.36586  1.0000
  Si          0.68784      0.29675      0.69884  1.0000
  Si          0.30829      0.61853      0.53560  1.0000
  Si          0.37602      0.68374      0.86635  1.0000
  Si          0.33158      0.68706      0.20261  1.0000
  Si          0.38725      0.69552      0.30371  1.0000
  Si          0.31996      0.61650      0.96865  1.0000
  Si          0.30359      0.67334      0.63669  1.0000
  Si          0.64062      0.30520      0.79993  1.0000
  Si          0.68590      0.37373      0.46695  1.0000
  Si          0.68843      0.30850      0.13620  1.0000
  Si          0.53040      0.41118      0.96565  1.0000
  Si          0.58537      0.10553      0.30033  1.0000
  Si          0.89593      0.46758      0.63361  1.0000
  Si          0.48075      0.57849      0.47104  1.0000
  Si          0.42857      0.90156      0.80398  1.0000
  Si          0.11733      0.52170      0.14012  1.0000
  Si          0.42449      0.52468      0.36894  1.0000
  Si          0.11534      0.58106      0.03690  1.0000
  Si          0.47595      0.88674      0.70223  1.0000
  Si          0.59173      0.47055      0.86243  1.0000
  Si          0.89839      0.41377      0.53151  1.0000
  Si          0.52317      0.09069      0.19857  1.0000
  Ge          0.31777      0.41363      0.85729  1.0000
  Si          0.60532      0.88942      0.18624  1.0000
  Si          0.10738      0.69454      0.51883  1.0000
  Si          0.70474      0.59760      0.35258  1.0000
  Si          0.40703      0.09753      0.68667  1.0000
  Si          0.90285      0.29624      0.01997  1.0000
  Si          0.40897      0.29772      0.48372  1.0000
  Ge          0.90029      0.57861      0.14526  1.0000
  Si          0.71200      0.10284      0.81631  1.0000
  Si          0.60269      0.69599      0.98258  1.0000
  Si          0.10325      0.39466      0.64997  1.0000
  Si          0.30567      0.89474      0.31588  1.0000
  Si          0.24626      0.32959      0.95316  1.0000
  Si          0.66662      0.90579      0.28733  1.0000
  Si          0.09611      0.74625      0.62000  1.0000
  Si          0.75852      0.65501      0.45406  1.0000
  Si          0.35455      0.10443      0.78798  1.0000
  Si          0.90739      0.24091      0.12197  1.0000
  Si          0.34601      0.24602      0.38255  1.0000
  Si          0.91276      0.66262      0.04939  1.0000
  Si          0.75693      0.08648      0.71522  1.0000
  Si          0.66256      0.75134      0.88058  1.0000
  Si          0.09964      0.33726      0.54849  1.0000
  Si          0.24628      0.88783      0.21457  1.0000
  Si          0.97192      0.11755      0.96912  1.0000
  Si          0.88418      0.84397      0.30124  1.0000
  Si          0.15807      0.02649      0.63537  1.0000
  Si          0.03884      0.87328      0.46858  1.0000
  Si          0.13227      0.16244      0.80344  1.0000
  Si          0.85348      0.96201      0.13605  1.0000
  Si          0.12774      0.96578      0.36718  1.0000
  Si          0.85046      0.87467      0.03342  1.0000
  Si          0.03631      0.14829      0.70130  1.0000
  Si          0.88756      0.03023      0.86649  1.0000
  Si          0.16170      0.11899      0.53397  1.0000
  Si          0.96599      0.82982      0.19910  1.0000
  O2          0.92464      0.99610      0.00127  1.0000
  O2          0.00623      0.92387      0.33430  1.0000
  O2          0.07845      0.06839      0.66824  1.0000
  O2          0.08172      0.99614      0.50127  1.0000
  O2          0.00867      0.06811      0.83448  1.0000
  O2          0.93672      0.92413      0.16806  1.0000
  O2          0.34809      0.57514      0.33723  1.0000
  O2          0.42481      0.75816      0.67070  1.0000
  O2          0.23905      0.65419      0.00373  1.0000
  O2          0.68183      0.43100      0.83276  1.0000
  O2          0.56158      0.20924      0.16396  1.0000
  O2          0.77327      0.33594      0.49849  1.0000
  O2          0.58099      0.33803      0.99881  1.0000
  O2          0.76906      0.41713      0.66532  1.0000
  O2          0.66281      0.23411      0.33185  1.0000
  O2          0.43345      0.65632      0.50406  1.0000
  O2          0.24699      0.56126      0.16979  1.0000
  O2          0.34843      0.78301      0.83859  1.0000
  O2          0.12462      0.20929      0.97832  1.0000
  O2          0.79423      0.90869      0.30751  1.0000
  O2          0.09454      0.87230      0.64008  1.0000
  O2          0.88515      0.78123      0.47460  1.0000
  O2          0.23289      0.10897      0.80935  1.0000
  O2          0.90857      0.11596      0.14144  1.0000
  O2          0.21839      0.11997      0.36247  1.0000
  O2          0.91141      0.78291      0.02422  1.0000
  O2          0.88164      0.08357      0.69504  1.0000
  O2          0.78869      0.87629      0.86111  1.0000
  O2          0.10005      0.21104      0.52795  1.0000
  O2          0.12008      0.88330      0.19320  1.0000
  O2          0.93591      0.85540      0.25060  1.0000
  O2          0.14630      0.06721      0.58476  1.0000
  O2          0.93691      0.06450      0.91820  1.0000
  O2          0.07663      0.13686      0.75195  1.0000
  O2          0.86854      0.92774      0.08434  1.0000
  O2          0.07523      0.92505      0.41778  1.0000
  O2          0.90208      0.20107      0.98036  1.0000
  O2          0.80080      0.69303      0.31389  1.0000
  O2          0.30962      0.09564      0.64781  1.0000
  O2          0.10988      0.79238      0.48027  1.0000
  O3          0.20211      0.30914      0.81552  1.0000
  O2          0.70159      0.88778      0.14745  1.0000
  O2          0.21014      0.89663      0.35474  1.0000
  O2          0.69709      0.79116      0.02218  1.0000
  O2          0.10388      0.29923      0.68866  1.0000
  O2          0.80991      0.10447      0.85510  1.0000
  O2          0.31363      0.19989      0.52228  1.0000
  O3          0.88913      0.68311      0.18702  1.0000
  O2          0.33103      0.63303      0.25334  1.0000
  O2          0.36376      0.67515      0.58658  1.0000
  O2          0.32136      0.67426      0.91876  1.0000
  O2          0.69411      0.35924      0.74921  1.0000
  O2          0.64325      0.31796      0.08378  1.0000
  O2          0.68475      0.31711      0.41597  1.0000
  O2          0.37488      0.32588      0.96942  1.0000
  O2          0.67449      0.03872      0.30453  1.0000
  O2          0.96322      0.62364      0.63750  1.0000
  O2          0.63717      0.66559      0.47346  1.0000
  O2          0.34325      0.97190      0.80631  1.0000
  O2          0.04033      0.36437      0.13914  1.0000
  O2          0.33573      0.36863      0.36505  1.0000
  O2          0.04512      0.66637      0.03314  1.0000
  O2          0.63188      0.95355      0.69802  1.0000
  O2          0.67205      0.62788      0.86341  1.0000
  O2          0.96771      0.32668      0.52909  1.0000
  O2          0.36751      0.02036      0.19624  1.0000
  O2          0.77275      0.30302      0.01363  1.0000
  O2          0.70188      0.46217      0.34412  1.0000
  O2          0.54279      0.22767      0.67758  1.0000
  O2          0.24161      0.69397      0.51243  1.0000
  O3          0.30017      0.54745      0.84163  1.0000
  O2          0.47345      0.75283      0.17939  1.0000
  O2          0.31128      0.76460      0.32497  1.0000
  O2          0.46579      0.68916      0.98891  1.0000
  O2          0.23583      0.53009      0.65843  1.0000
  O2          0.71672      0.23943      0.82317  1.0000
  O2          0.54378      0.29830      0.49012  1.0000
  O3          0.74886      0.44479      0.16091  1.0000
  O2          0.78604      0.53082      0.03120  1.0000
  O2          0.47010      0.24466      0.36172  1.0000
  O2          0.75920      0.21205      0.69462  1.0000
  O2          0.22667      0.46256      0.52982  1.0000
  O2          0.53282      0.74630      0.86337  1.0000
  O2          0.25358      0.76442      0.19594  1.0000
  O2          0.54331      0.78022      0.30793  1.0000
  O2          0.25128      0.46137      0.97134  1.0000
  O2          0.22156      0.74760      0.64083  1.0000
  O2          0.48526      0.22784      0.80661  1.0000
  O2          0.76024      0.52970      0.47273  1.0000
  O2          0.78268      0.24595      0.13918  1.0000
  O3          0.21688      0.30344      0.90047  1.0000
  O2          0.68337      0.90046      0.23270  1.0000
  O2          0.10032      0.76487      0.56539  1.0000
  O2          0.77614      0.67185      0.39947  1.0000
  O2          0.33687      0.10231      0.73321  1.0000
  O2          0.90464      0.22913      0.06695  1.0000
  O2          0.33158      0.22739      0.43716  1.0000
  O3          0.90952      0.68877      0.10207  1.0000
  O2          0.77900      0.09180      0.76985  1.0000
  O2          0.67158      0.76311      0.93560  1.0000
  O2          0.10042      0.32042      0.60309  1.0000
  O2          0.23073      0.88996      0.26934  1.0000
  O2          0.58368      0.55412      0.98705  1.0000
  O2          0.44435      0.02271      0.32326  1.0000
  O2          0.97794      0.40966      0.65764  1.0000
  O2          0.42452      0.43757      0.49374  1.0000
  O2          0.57140      0.98127      0.82691  1.0000
  O3          0.04002      0.57964      0.16577  1.0000
  O2          0.56443      0.58261      0.34491  1.0000
  O2          0.02567      0.43812      0.01550  1.0000
  O2          0.41775      0.96956      0.67929  1.0000
  O3          0.45648      0.41261      0.83677  1.0000
  O2          0.98308      0.55469      0.50881  1.0000
  O2          0.58629      0.01099      0.17564  1.0000
  O2          0.58217      0.15246      0.24864  1.0000
  O2          0.84384      0.41443      0.58227  1.0000
  O2          0.58128      0.41447      0.91432  1.0000
  O2          0.42581      0.83980      0.75391  1.0000
  O2          0.16295      0.57778      0.08823  1.0000
  O2          0.42555      0.57783      0.42028  1.0000
  F           0.45723      0.89115      0.25024  1.0000
  F           0.10496      0.54558      0.58432  1.0000
  F           0.42449      0.51763      0.90661  1.0000
  F           0.56218      0.10112      0.75231  1.0000
  F           0.90301      0.47462      0.09594  1.0000
  F           0.55552      0.44668      0.41823  1.0000
