data_cif

_audit_creation_method             'generated by GULP'

_symmetry_space_group_name_H-M     'P 1'
_symmetry_Int_Tables_number        1
_symmetry_cell_setting             triclinic

_cell_length_a                       11.9607
_cell_length_b                       11.9740
_cell_length_c                       29.3488
_cell_angle_alpha                   90.2609
_cell_angle_beta                    90.3638
_cell_angle_gamma                  120.0419

loop_
_atom_site_label
_atom_site_fract_x
_atom_site_fract_y
_atom_site_fract_z
_atom_site_occupancy
  Si          0.69960      0.37570      0.03389  1.0000
  Si          0.62853      0.33129      0.36753  1.0000
  Si          0.69340      0.30986      0.70028  1.0000
  Si          0.30869      0.63059      0.53475  1.0000
  Si          0.38197      0.69098      0.86538  1.0000
  Si          0.32957      0.70858      0.20045  1.0000
  Si          0.38586      0.70885      0.30154  1.0000
  Si          0.31699      0.62292      0.96726  1.0000
  Si          0.30979      0.68656      0.63574  1.0000
  Si          0.64515      0.31335      0.80122  1.0000
  Si          0.68629      0.38794      0.46856  1.0000
  Si          0.70437      0.32714      0.13515  1.0000
  Si          0.52835      0.41112      0.96729  1.0000
  Si          0.59019      0.11984      0.30241  1.0000
  Si          0.90129      0.48137      0.63535  1.0000
  Si          0.47940      0.59201      0.46929  1.0000
  Si          0.43424      0.90922      0.80249  1.0000
  Si          0.11615      0.53610      0.13514  1.0000
  Si          0.42423      0.53758      0.36711  1.0000
  Si          0.10749      0.58136      0.03302  1.0000
  Si          0.48265      0.89981      0.70090  1.0000
  Si          0.59623      0.47643      0.86444  1.0000
  Si          0.89882      0.42682      0.53341  1.0000
  Si          0.53517      0.11805      0.20034  1.0000
  Ge          0.32277      0.42063      0.85772  1.0000
  Si          0.60719      0.90963      0.18579  1.0000
  Si          0.10736      0.70705      0.51961  1.0000
  Si          0.70439      0.60849      0.35308  1.0000
  Si          0.41324      0.11067      0.68657  1.0000
  Si          0.90122      0.29905      0.01953  1.0000
  Si          0.40816      0.31134      0.48345  1.0000
  Si          0.90569      0.60637      0.14963  1.0000
  Si          0.71802      0.11069      0.81616  1.0000
  Ge          0.60239      0.70091      0.98382  1.0000
  Si          0.10940      0.40797      0.65057  1.0000
  Si          0.30920      0.91061      0.31663  1.0000
  Si          0.24595      0.33524      0.95318  1.0000
  Si          0.66714      0.91816      0.28688  1.0000
  Si          0.10157      0.76007      0.62057  1.0000
  Si          0.75816      0.66894      0.45405  1.0000
  Si          0.35907      0.11196      0.78767  1.0000
  Si          0.91434      0.25593      0.12090  1.0000
  Si          0.34791      0.25952      0.38229  1.0000
  Si          0.90628      0.65792      0.04852  1.0000
  Si          0.76333      0.09964      0.71508  1.0000
  Si          0.67028      0.75931      0.88117  1.0000
  Si          0.10025      0.34982      0.54918  1.0000
  Si          0.25705      0.91667      0.21552  1.0000
  Si          0.97167      0.12043      0.97001  1.0000
  Si          0.88473      0.85538      0.30278  1.0000
  Si          0.16376      0.04035      0.63572  1.0000
  Si          0.03916      0.88688      0.46913  1.0000
  Si          0.13754      0.17025      0.80365  1.0000
  Si          0.85663      0.97857      0.13695  1.0000
  Si          0.13015      0.97892      0.36790  1.0000
  Si          0.85154      0.88203      0.03633  1.0000
  Si          0.04242      0.16088      0.70164  1.0000
  Si          0.89308      0.03690      0.86677  1.0000
  Si          0.16178      0.13180      0.53442  1.0000
  Si          0.97684      0.85496      0.20162  1.0000
  O2          0.93068      0.99941      0.00246  1.0000
  O2          0.00610      0.93590      0.33593  1.0000
  O2          0.08458      0.08181      0.66854  1.0000
  O2          0.08123      0.00904      0.50181  1.0000
  O2          0.01580      0.07704      0.83554  1.0000
  O2          0.93472      0.93821      0.17105  1.0000
  O2          0.34756      0.58642      0.33431  1.0000
  O2          0.43285      0.77257      0.66888  1.0000
  O2          0.22905      0.65794      0.99933  1.0000
  O2          0.68599      0.43645      0.83503  1.0000
  O2          0.58252      0.24321      0.16806  1.0000
  O2          0.77202      0.34959      0.50089  1.0000
  O2          0.57686      0.33442      0.00009  1.0000
  O2          0.77596      0.43232      0.66749  1.0000
  O2          0.66707      0.24614      0.33488  1.0000
  O2          0.43143      0.66894      0.50196  1.0000
  O2          0.24348      0.58561      0.16716  1.0000
  O2          0.35452      0.78890      0.83641  1.0000
  O2          0.12424      0.21599      0.97847  1.0000
  O2          0.79424      0.91940      0.30711  1.0000
  O2          0.10125      0.88618      0.64073  1.0000
  O2          0.88479      0.79599      0.47418  1.0000
  O2          0.23665      0.11455      0.80888  1.0000
  O2          0.91742      0.13261      0.14213  1.0000
  O2          0.22075      0.13283      0.36209  1.0000
  O2          0.90303      0.78154      0.02792  1.0000
  O2          0.88806      0.09796      0.69460  1.0000
  O2          0.79456      0.88333      0.85973  1.0000
  O2          0.09885      0.22287      0.52876  1.0000
  O2          0.13044      0.91655      0.19526  1.0000
  O2          0.93998      0.86655      0.25272  1.0000
  O2          0.14954      0.07983      0.58504  1.0000
  O2          0.93767      0.06674      0.91907  1.0000
  O2          0.07992      0.14591      0.75235  1.0000
  O2          0.87756      0.93890      0.08706  1.0000
  O2          0.07951      0.94008      0.41863  1.0000
  O2          0.89686      0.19837      0.98134  1.0000
  O2          0.80163      0.70414      0.31452  1.0000
  O2          0.31589      0.11051      0.64769  1.0000
  O2          0.10858      0.80470      0.48104  1.0000
  O3          0.20908      0.31687      0.81527  1.0000
  O2          0.70369      0.90814      0.14716  1.0000
  O2          0.21186      0.90930      0.35518  1.0000
  O3          0.69990      0.80572      0.02657  1.0000
  O2          0.11163      0.31259      0.68918  1.0000
  O2          0.81590      0.11174      0.85493  1.0000
  O2          0.31318      0.21388      0.52203  1.0000
  O2          0.90482      0.70382      0.18805  1.0000
  O2          0.32919      0.65097      0.25075  1.0000
  O2          0.36725      0.68764      0.58532  1.0000
  O2          0.31983      0.67681      0.91631  1.0000
  O2          0.69891      0.37008      0.75076  1.0000
  O2          0.64410      0.32212      0.08459  1.0000
  O2          0.68624      0.33113      0.41794  1.0000
  O2          0.37221      0.32488      0.96807  1.0000
  O2          0.67766      0.05100      0.30529  1.0000
  O2          0.96931      0.63756      0.63857  1.0000
  O2          0.63598      0.67946      0.47218  1.0000
  O2          0.34832      0.97875      0.80520  1.0000
  O2          0.04759      0.38009      0.13831  1.0000
  O2          0.33680      0.38116      0.36379  1.0000
  O2          0.03760      0.66757      0.02955  1.0000
  O2          0.63876      0.96739      0.69705  1.0000
  O2          0.67548      0.63364      0.86399  1.0000
  O2          0.96752      0.33932      0.53031  1.0000
  O2          0.37869      0.04888      0.19707  1.0000
  O2          0.76777      0.30029      0.01190  1.0000
  O2          0.70325      0.47399      0.34500  1.0000
  O2          0.54892      0.24202      0.67822  1.0000
  O2          0.24085      0.70594      0.51209  1.0000
  O3          0.31049      0.55559      0.83997  1.0000
  O2          0.47238      0.77576      0.17777  1.0000
  O2          0.31064      0.77727      0.32365  1.0000
  O3          0.45988      0.70200      0.98829  1.0000
  O2          0.24298      0.54345      0.65782  1.0000
  O2          0.72130      0.24623      0.82357  1.0000
  O2          0.54318      0.31278      0.49073  1.0000
  O2          0.77257      0.47156      0.15713  1.0000
  O2          0.77818      0.53210      0.02910  1.0000
  O2          0.47213      0.25694      0.36242  1.0000
  O2          0.76593      0.22652      0.69530  1.0000
  O2          0.22688      0.47439      0.52963  1.0000
  O2          0.53909      0.75588      0.86609  1.0000
  O2          0.25466      0.78971      0.19560  1.0000
  O2          0.54215      0.79195      0.30632  1.0000
  O2          0.25686      0.46862      0.97189  1.0000
  O2          0.22786      0.76067      0.64036  1.0000
  O2          0.48956      0.23451      0.80694  1.0000
  O2          0.75956      0.54403      0.47361  1.0000
  O2          0.78850      0.25551      0.14043  1.0000
  O3          0.21726      0.31299      0.90033  1.0000
  O2          0.68331      0.91505      0.23230  1.0000
  O2          0.10306      0.77837      0.56599  1.0000
  O2          0.77643      0.68478      0.39950  1.0000
  O2          0.34188      0.11247      0.73294  1.0000
  O2          0.90796      0.23197      0.06649  1.0000
  O2          0.33205      0.24086      0.43677  1.0000
  O2          0.90732      0.67876      0.10298  1.0000
  O2          0.78532      0.10246      0.76960  1.0000
  O3          0.68728      0.77336      0.93539  1.0000
  O2          0.10361      0.33333      0.60366  1.0000
  O2          0.23860      0.91514      0.27001  1.0000
  O3          0.57512      0.54813      0.99148  1.0000
  O2          0.44939      0.03561      0.32544  1.0000
  O2          0.98517      0.42425      0.65878  1.0000
  O2          0.42309      0.45116      0.49222  1.0000
  O2          0.57710      0.98803      0.82563  1.0000
  O2          0.03202      0.59332      0.15815  1.0000
  O2          0.56508      0.59515      0.34392  1.0000
  O2          0.02633      0.43839      0.01032  1.0000
  O2          0.42410      0.98315      0.67821  1.0000
  O3          0.46036      0.41589      0.83886  1.0000
  O2          0.98167      0.56757      0.51013  1.0000
  O2          0.59289      0.03475      0.17680  1.0000
  O2          0.58924      0.17196      0.25139  1.0000
  O2          0.84661      0.42738      0.58431  1.0000
  O2          0.58718      0.42376      0.91672  1.0000
  O2          0.43171      0.84991      0.75220  1.0000
  O2          0.16588      0.58673      0.08377  1.0000
  O2          0.42493      0.59112      0.41819  1.0000
  F           0.45859      0.91015      0.25032  1.0000
  F           0.10796      0.55842      0.58417  1.0000
  F           0.42972      0.52519      0.90752  1.0000
  F           0.56736      0.11123      0.75142  1.0000
  F           0.90385      0.45478      0.08365  1.0000
  F           0.55634      0.46052      0.41741  1.0000
