data_cif

_audit_creation_method             'generated by GULP'

_symmetry_space_group_name_H-M     'P 1'
_symmetry_Int_Tables_number        1
_symmetry_cell_setting             triclinic

_cell_length_a                       11.9283
_cell_length_b                       12.0137
_cell_length_c                       29.4201
_cell_angle_alpha                   90.2091
_cell_angle_beta                    90.0250
_cell_angle_gamma                  120.1527

loop_
_atom_site_label
_atom_site_fract_x
_atom_site_fract_y
_atom_site_fract_z
_atom_site_occupancy
  Si          0.69960      0.37570      0.03389  1.0000
  Si          0.61777      0.32580      0.36618  1.0000
  Si          0.67781      0.30284      0.69921  1.0000
  Si          0.29520      0.62446      0.53331  1.0000
  Si          0.37484      0.67676      0.86574  1.0000
  Si          0.31981      0.70201      0.20081  1.0000
  Si          0.37526      0.70364      0.30165  1.0000
  Si          0.31569      0.61328      0.96759  1.0000
  Si          0.29427      0.67887      0.63398  1.0000
  Si          0.63595      0.31019      0.80214  1.0000
  Si          0.67328      0.38140      0.46697  1.0000
  Si          0.69829      0.32168      0.13455  1.0000
  Si          0.52832      0.41070      0.96694  1.0000
  Si          0.58104      0.11508      0.30145  1.0000
  Si          0.88760      0.47361      0.63356  1.0000
  Si          0.46576      0.58406      0.46819  1.0000
  Si          0.41440      0.89157      0.80304  1.0000
  Si          0.10928      0.52787      0.13573  1.0000
  Si          0.41205      0.53080      0.36638  1.0000
  Si          0.10822      0.57747      0.03392  1.0000
  Si          0.46549      0.88918      0.69963  1.0000
  Si          0.59572      0.47456      0.86473  1.0000
  Si          0.88487      0.42073      0.53194  1.0000
  Si          0.52702      0.11228      0.19960  1.0000
  Ge          0.31781      0.40849      0.85697  1.0000
  Si          0.59839      0.90379      0.18579  1.0000
  Si          0.09404      0.70151      0.51819  1.0000
  Si          0.69373      0.60274      0.35178  1.0000
  Si          0.39468      0.10175      0.68288  1.0000
  Si          0.89966      0.29662      0.01946  1.0000
  Si          0.39412      0.30421      0.48221  1.0000
  Si          0.89970      0.59969      0.14980  1.0000
  Si          0.70299      0.09937      0.81668  1.0000
  Si          0.59882      0.69415      0.98314  1.0000
  Si          0.09507      0.39960      0.64865  1.0000
  Si          0.29940      0.90532      0.31595  1.0000
  Si          0.24354      0.32779      0.95313  1.0000
  Si          0.65729      0.91338      0.28656  1.0000
  Si          0.08639      0.75282      0.61907  1.0000
  Si          0.74537      0.66137      0.45254  1.0000
  Ge          0.36111      0.10212      0.78323  1.0000
  Si          0.90775      0.24891      0.12048  1.0000
  Si          0.33565      0.25339      0.38130  1.0000
  Si          0.90797      0.65651      0.04901  1.0000
  Si          0.74962      0.08942      0.71434  1.0000
  Si          0.66346      0.75254      0.88188  1.0000
  Si          0.08632      0.34314      0.54742  1.0000
  Si          0.24775      0.91024      0.21517  1.0000
  Si          0.96685      0.11605      0.96939  1.0000
  Si          0.87422      0.84987      0.30116  1.0000
  Si          0.14796      0.03195      0.63292  1.0000
  Si          0.02581      0.88050      0.46749  1.0000
  Si          0.13272      0.15959      0.80209  1.0000
  Si          0.84630      0.97015      0.13512  1.0000
  Si          0.11873      0.97298      0.36648  1.0000
  Si          0.84588      0.87353      0.03445  1.0000
  Si          0.03270      0.15516      0.70084  1.0000
  Si          0.88547      0.03243      0.86652  1.0000
  Si          0.14535      0.12423      0.53247  1.0000
  Si          0.96689      0.84777      0.20013  1.0000
  O2          0.92046      0.99124      0.00044  1.0000
  O2          0.99696      0.92990      0.33354  1.0000
  O2          0.07357      0.07621      0.66719  1.0000
  O2          0.06649      0.00309      0.49941  1.0000
  O2          0.00479      0.07313      0.83370  1.0000
  O2          0.92592      0.92764      0.16743  1.0000
  O2          0.33582      0.58071      0.33417  1.0000
  O2          0.41703      0.76379      0.66732  1.0000
  O2          0.23347      0.65265      0.00109  1.0000
  O2          0.68789      0.43675      0.83514  1.0000
  O2          0.57458      0.23673      0.16707  1.0000
  O2          0.75870      0.34341      0.49946  1.0000
  O2          0.57756      0.33709      0.00030  1.0000
  O2          0.76222      0.42368      0.66631  1.0000
  O2          0.65719      0.24154      0.33359  1.0000
  O2          0.41871      0.66209      0.50066  1.0000
  O2          0.23537      0.57795      0.16827  1.0000
  O2          0.34221      0.76878      0.83604  1.0000
  O2          0.12036      0.20746      0.97829  1.0000
  O2          0.78412      0.91396      0.30675  1.0000
  O2          0.08383      0.87768      0.63881  1.0000
  O2          0.87126      0.78806      0.47296  1.0000
  O3          0.22173      0.09789      0.80614  1.0000
  O2          0.90917      0.12401      0.14071  1.0000
  O2          0.20875      0.12692      0.36114  1.0000
  O2          0.90986      0.78348      0.02923  1.0000
  O2          0.87644      0.09181      0.69429  1.0000
  O2          0.78893      0.87814      0.86208  1.0000
  O2          0.08427      0.21677      0.52663  1.0000
  O2          0.12153      0.91049      0.19477  1.0000
  O2          0.92649      0.86189      0.25050  1.0000
  O2          0.12694      0.06933      0.58282  1.0000
  O2          0.93312      0.06821      0.91808  1.0000
  O2          0.07102      0.14402      0.75127  1.0000
  O2          0.86001      0.93030      0.08448  1.0000
  O2          0.06495      0.93232      0.41684  1.0000
  O2          0.89519      0.19649      0.98138  1.0000
  O2          0.79141      0.69879      0.31317  1.0000
  O2          0.30233      0.09860      0.64115  1.0000
  O2          0.09663      0.80003      0.47991  1.0000
  O3          0.20784      0.30710      0.81445  1.0000
  O2          0.69411      0.90079      0.14708  1.0000
  O2          0.20201      0.90467      0.35458  1.0000
  O2          0.69260      0.78731      0.02305  1.0000
  O2          0.09876      0.30555      0.68714  1.0000
  O2          0.80127      0.10048      0.85461  1.0000
  O2          0.29813      0.20630      0.52080  1.0000
  O2          0.89710      0.69619      0.18807  1.0000
  O2          0.31873      0.64577      0.25123  1.0000
  O2          0.35319      0.68075      0.58376  1.0000
  O2          0.31882      0.66996      0.91747  1.0000
  O2          0.68214      0.35859      0.74993  1.0000
  O2          0.64045      0.31945      0.08406  1.0000
  O2          0.67454      0.32528      0.41653  1.0000
  O2          0.37196      0.32387      0.97000  1.0000
  O2          0.66846      0.04627      0.30473  1.0000
  O2          0.95467      0.62906      0.63748  1.0000
  O2          0.62274      0.67138      0.47090  1.0000
  O3          0.32505      0.95327      0.80754  1.0000
  O2          0.04070      0.37208      0.13871  1.0000
  O2          0.32453      0.37475      0.36294  1.0000
  O2          0.04003      0.66519      0.03044  1.0000
  O2          0.62265      0.95981      0.69679  1.0000
  O2          0.67680      0.63137      0.86575  1.0000
  O2          0.95334      0.33325      0.52921  1.0000
  O2          0.36999      0.04247      0.19666  1.0000
  O2          0.76689      0.29971      0.01172  1.0000
  O2          0.69280      0.46872      0.34387  1.0000
  O2          0.53375      0.23377      0.67717  1.0000
  O2          0.22809      0.70043      0.51097  1.0000
  O3          0.30029      0.54151      0.84120  1.0000
  O2          0.46351      0.76996      0.17833  1.0000
  O2          0.30028      0.77237      0.32374  1.0000
  O2          0.46130      0.68714      0.98868  1.0000
  O2          0.22736      0.53612      0.65613  1.0000
  O2          0.70803      0.23552      0.82146  1.0000
  O2          0.52951      0.30583      0.48937  1.0000
  O2          0.76557      0.46503      0.15688  1.0000
  O2          0.78003      0.53177      0.02931  1.0000
  O2          0.46091      0.25180      0.36140  1.0000
  O2          0.74202      0.21224      0.69709  1.0000
  O2          0.21277      0.46878      0.52798  1.0000
  O2          0.53314      0.74533      0.86363  1.0000
  O2          0.24537      0.78337      0.19565  1.0000
  O2          0.53203      0.78711      0.30634  1.0000
  O2          0.24809      0.45862      0.97100  1.0000
  O2          0.21336      0.75409      0.63876  1.0000
  O3          0.48339      0.24057      0.81071  1.0000
  O2          0.74732      0.53707      0.47202  1.0000
  O2          0.78116      0.24868      0.13982  1.0000
  O3          0.21626      0.30055      0.90059  1.0000
  O2          0.67458      0.91024      0.23216  1.0000
  O2          0.08826      0.77095      0.56462  1.0000
  O2          0.76505      0.67814      0.39813  1.0000
  O3          0.31518      0.10373      0.72590  1.0000
  O2          0.90438      0.22826      0.06616  1.0000
  O2          0.31855      0.23423      0.43568  1.0000
  O2          0.90576      0.67439      0.10336  1.0000
  O2          0.76180      0.08866      0.76864  1.0000
  O2          0.67043      0.76388      0.93669  1.0000
  O2          0.09075      0.32659      0.60174  1.0000
  O2          0.22811      0.90857      0.26954  1.0000
  O2          0.57987      0.55296      0.98791  1.0000
  O2          0.43942      0.03105      0.32457  1.0000
  O2          0.96826      0.41273      0.65674  1.0000
  O2          0.40856      0.44334      0.49123  1.0000
  O2          0.55977      0.97951      0.82457  1.0000
  O2          0.02492      0.58493      0.15881  1.0000
  O2          0.55364      0.58856      0.34306  1.0000
  O2          0.02579      0.43595      0.01079  1.0000
  O2          0.41174      0.97644      0.67743  1.0000
  O3          0.46195      0.41623      0.83798  1.0000
  O2          0.96887      0.56168      0.50889  1.0000
  O2          0.58470      0.02867      0.17648  1.0000
  O2          0.58108      0.16664      0.25040  1.0000
  O2          0.83165      0.42088      0.58281  1.0000
  O2          0.58310      0.41617      0.91619  1.0000
  O2          0.41720      0.84186      0.75112  1.0000
  O2          0.16267      0.58008      0.08482  1.0000
  O2          0.41151      0.58318      0.41736  1.0000
  F           0.44931      0.90519      0.25053  1.0000
  F           0.09316      0.55153      0.58349  1.0000
  F           0.42393      0.51569      0.90714  1.0000
  F           0.51319      0.09977      0.75519  1.0000
  F           0.90024      0.44990      0.08416  1.0000
  F           0.54382      0.45390      0.41666  1.0000
