data_cif

_audit_creation_method             'generated by GULP'

_symmetry_space_group_name_H-M     'P 1'
_symmetry_Int_Tables_number        1
_symmetry_cell_setting             triclinic

_cell_length_a                       11.9754
_cell_length_b                       11.9800
_cell_length_c                       29.3844
_cell_angle_alpha                   90.1844
_cell_angle_beta                    90.4734
_cell_angle_gamma                  120.0970

loop_
_atom_site_label
_atom_site_fract_x
_atom_site_fract_y
_atom_site_fract_z
_atom_site_occupancy
  Si          0.69960      0.37570      0.03389  1.0000
  Si          0.62301      0.32936      0.36708  1.0000
  Si          0.68693      0.30537      0.69977  1.0000
  Si          0.30416      0.62682      0.53543  1.0000
  Si          0.37479      0.68772      0.86714  1.0000
  Si          0.32227      0.70308      0.20211  1.0000
  Si          0.38099      0.70730      0.30303  1.0000
  Si          0.31622      0.61600      0.96879  1.0000
  Si          0.30239      0.68136      0.63627  1.0000
  Si          0.64534      0.31158      0.80102  1.0000
  Si          0.68244      0.38458      0.46803  1.0000
  Si          0.69889      0.32185      0.13489  1.0000
  Si          0.52630      0.40883      0.96663  1.0000
  Si          0.58475      0.11821      0.30191  1.0000
  Si          0.89416      0.47572      0.63455  1.0000
  Si          0.47587      0.58933      0.47032  1.0000
  Si          0.43276      0.90561      0.80365  1.0000
  Si          0.11000      0.52814      0.13724  1.0000
  Si          0.41968      0.53585      0.36827  1.0000
  Si          0.10911      0.57816      0.03522  1.0000
  Si          0.47458      0.89429      0.70197  1.0000
  Si          0.59131      0.47094      0.86381  1.0000
  Si          0.89487      0.42255      0.53273  1.0000
  Si          0.52808      0.11305      0.19990  1.0000
  Ge          0.31939      0.41986      0.85828  1.0000
  Si          0.59910      0.90390      0.18665  1.0000
  Si          0.10317      0.70325      0.51932  1.0000
  Si          0.69918      0.60707      0.35340  1.0000
  Si          0.40538      0.10624      0.68813  1.0000
  Si          0.89998      0.29763      0.02043  1.0000
  Si          0.40510      0.30857      0.48346  1.0000
  Si          0.90111      0.60016      0.15078  1.0000
  Si          0.71688      0.10803      0.81546  1.0000
  Si          0.59822      0.69329      0.98396  1.0000
  Si          0.10192      0.40247      0.65050  1.0000
  Si          0.30438      0.90912      0.31680  1.0000
  Si          0.24178      0.32769      0.95303  1.0000
  Si          0.66176      0.91641      0.28751  1.0000
  Si          0.09473      0.75463      0.62015  1.0000
  Si          0.75394      0.66581      0.45433  1.0000
  Si          0.35897      0.10950      0.78963  1.0000
  Si          0.90774      0.24896      0.12147  1.0000
  Si          0.34288      0.25742      0.38252  1.0000
  Si          0.90874      0.65617      0.04984  1.0000
  Si          0.75584      0.09483      0.71414  1.0000
  Si          0.65938      0.75065      0.88250  1.0000
  Si          0.09585      0.34552      0.54924  1.0000
  Si          0.25017      0.91183      0.21578  1.0000
  Si          0.96656      0.11584      0.97108  1.0000
  Si          0.87921      0.85364      0.30261  1.0000
  Si          0.15701      0.03475      0.63517  1.0000
  Si          0.03513      0.88329      0.46883  1.0000
  Ge          0.13235      0.16574      0.80411  1.0000
  Si          0.84570      0.96924      0.13669  1.0000
  Si          0.12492      0.97676      0.36774  1.0000
  Si          0.84599      0.87298      0.03590  1.0000
  Si          0.03243      0.15299      0.70005  1.0000
  Si          0.88542      0.02893      0.86823  1.0000
  Si          0.15887      0.12826      0.53396  1.0000
  Si          0.96949      0.84894      0.20158  1.0000
  O2          0.92262      0.99382      0.00343  1.0000
  O2          0.00211      0.93429      0.33512  1.0000
  O2          0.07422      0.07619      0.66566  1.0000
  O2          0.07835      0.00664      0.50090  1.0000
  O3          0.00464      0.05953      0.83805  1.0000
  O2          0.92632      0.92855      0.16943  1.0000
  O2          0.34277      0.58557      0.33608  1.0000
  O2          0.42406      0.76720      0.66994  1.0000
  O2          0.23443      0.65345      0.00290  1.0000
  O2          0.68429      0.43492      0.83463  1.0000
  O2          0.57553      0.23718      0.16702  1.0000
  O2          0.76869      0.34579      0.49988  1.0000
  O2          0.57742      0.33620      0.99996  1.0000
  O2          0.76819      0.42657      0.66629  1.0000
  O2          0.66147      0.24533      0.33398  1.0000
  O2          0.42788      0.66553      0.50322  1.0000
  O2          0.23600      0.57769      0.16989  1.0000
  O2          0.35113      0.78870      0.83871  1.0000
  O2          0.12051      0.20817      0.97851  1.0000
  O2          0.78954      0.91835      0.30742  1.0000
  O2          0.09442      0.88057      0.64031  1.0000
  O2          0.88108      0.79228      0.47451  1.0000
  O3          0.23952      0.10921      0.81221  1.0000
  O2          0.90856      0.12359      0.14180  1.0000
  O2          0.21502      0.13097      0.36253  1.0000
  O2          0.91006      0.78325      0.03005  1.0000
  O2          0.87833      0.09220      0.69238  1.0000
  O2          0.78364      0.87592      0.86307  1.0000
  O2          0.09553      0.21906      0.52902  1.0000
  O2          0.12326      0.91132      0.19562  1.0000
  O2          0.93165      0.86357      0.25218  1.0000
  O2          0.14836      0.07409      0.58403  1.0000
  O2          0.92909      0.06256      0.92049  1.0000
  O3          0.06713      0.13058      0.74959  1.0000
  O2          0.85837      0.92671      0.08637  1.0000
  O2          0.07281      0.93510      0.41810  1.0000
  O2          0.89619      0.19758      0.98232  1.0000
  O2          0.79595      0.70276      0.31482  1.0000
  O2          0.30751      0.10563      0.64950  1.0000
  O2          0.10493      0.80144      0.48081  1.0000
  O1          0.20699      0.32235      0.81519  1.0000
  O2          0.69418      0.90017      0.14820  1.0000
  O2          0.20763      0.90847      0.35523  1.0000
  O2          0.69352      0.78719      0.02366  1.0000
  O2          0.10288      0.30631      0.68910  1.0000
  O2          0.81543      0.10928      0.85383  1.0000
  O2          0.31019      0.21081      0.52186  1.0000
  O2          0.89923      0.69699      0.18919  1.0000
  O2          0.32320      0.64780      0.25262  1.0000
  O2          0.36134      0.68323      0.58616  1.0000
  O2          0.32007      0.67710      0.91924  1.0000
  O2          0.69611      0.36718      0.75024  1.0000
  O2          0.64159      0.31974      0.08406  1.0000
  O2          0.68121      0.32836      0.41729  1.0000
  O2          0.37045      0.32347      0.96942  1.0000
  O2          0.67247      0.04980      0.30525  1.0000
  O2          0.96217      0.63193      0.63780  1.0000
  O2          0.63248      0.67645      0.47297  1.0000
  O2          0.34857      0.97584      0.80596  1.0000
  O2          0.04075      0.37190      0.13991  1.0000
  O2          0.33188      0.37952      0.36452  1.0000
  O2          0.04032      0.66541      0.03132  1.0000
  O2          0.63021      0.96231      0.69706  1.0000
  O2          0.67007      0.62838      0.86534  1.0000
  O2          0.96358      0.33513      0.52989  1.0000
  O2          0.37158      0.04355      0.19683  1.0000
  O2          0.76767      0.30046      0.01190  1.0000
  O2          0.69750      0.47255      0.34495  1.0000
  O2          0.54126      0.23672      0.67882  1.0000
  O2          0.23689      0.70237      0.51246  1.0000
  O3          0.29887      0.55228      0.84248  1.0000
  O2          0.46439      0.76979      0.17921  1.0000
  O2          0.30627      0.77640      0.32470  1.0000
  O2          0.46176      0.68739      0.98986  1.0000
  O2          0.23526      0.53802      0.65823  1.0000
  O2          0.72242      0.24483      0.82286  1.0000
  O2          0.53979      0.30940      0.49043  1.0000
  O2          0.76697      0.46572      0.15728  1.0000
  O2          0.78043      0.53206      0.02967  1.0000
  O2          0.46662      0.25513      0.36224  1.0000
  O2          0.75853      0.22165      0.69433  1.0000
  O2          0.22270      0.47064      0.53010  1.0000
  O2          0.53090      0.74721      0.86478  1.0000
  O2          0.24741      0.78411      0.19655  1.0000
  O2          0.53729      0.79093      0.30755  1.0000
  O2          0.24871      0.46073      0.97032  1.0000
  O2          0.22056      0.75537      0.64039  1.0000
  O2          0.49075      0.23247      0.80795  1.0000
  O2          0.75566      0.54059      0.47336  1.0000
  O2          0.78180      0.24906      0.14038  1.0000
  O3          0.21527      0.30364      0.90014  1.0000
  O2          0.67648      0.91135      0.23303  1.0000
  O2          0.09741      0.77352      0.56564  1.0000
  O2          0.77149      0.68264      0.39984  1.0000
  O2          0.33823      0.11217      0.73490  1.0000
  O2          0.90417      0.22820      0.06707  1.0000
  O2          0.32809      0.23833      0.43692  1.0000
  O2          0.90733      0.67485      0.10422  1.0000
  O2          0.78278      0.09989      0.76854  1.0000
  O2          0.66817      0.76130      0.93740  1.0000
  O2          0.09755      0.32854      0.60367  1.0000
  O2          0.23279      0.91190      0.27020  1.0000
  O2          0.57779      0.55099      0.98819  1.0000
  O2          0.44437      0.03478      0.32514  1.0000
  O2          0.97772      0.41878      0.65830  1.0000
  O2          0.42017      0.44813      0.49285  1.0000
  O2          0.57689      0.98496      0.82572  1.0000
  O2          0.02560      0.58485      0.16010  1.0000
  O2          0.55989      0.59389      0.34469  1.0000
  O2          0.02675      0.43633      0.01189  1.0000
  O2          0.41395      0.97720      0.68052  1.0000
  O3          0.45633      0.41444      0.83799  1.0000
  O2          0.97813      0.56346      0.50959  1.0000
  O2          0.58518      0.02887      0.17690  1.0000
  O2          0.58306      0.16871      0.25070  1.0000
  O2          0.84122      0.42233      0.58337  1.0000
  O2          0.57872      0.41380      0.91564  1.0000
  O2          0.42774      0.84433      0.75356  1.0000
  O2          0.16295      0.58066      0.08637  1.0000
  O2          0.42099      0.58887      0.41939  1.0000
  F           0.45242      0.90700      0.25089  1.0000
  F           0.10242      0.55360      0.58411  1.0000
  F           0.42299      0.51901      0.90722  1.0000
  F           0.56482      0.10801      0.75193  1.0000
  F           0.90134      0.45040      0.08458  1.0000
  F           0.55160      0.45802      0.41769  1.0000
