data_cif

_audit_creation_method             'generated by GULP'

_symmetry_space_group_name_H-M     'P 1'
_symmetry_Int_Tables_number        1
_symmetry_cell_setting             triclinic

_cell_length_a                       11.9569
_cell_length_b                       11.9962
_cell_length_c                       29.3838
_cell_angle_alpha                   90.2228
_cell_angle_beta                    90.3878
_cell_angle_gamma                  120.0856

loop_
_atom_site_label
_atom_site_fract_x
_atom_site_fract_y
_atom_site_fract_z
_atom_site_occupancy
  Si          0.69960      0.37570      0.03389  1.0000
  Si          0.62270      0.32549      0.36669  1.0000
  Si          0.68750      0.30098      0.69918  1.0000
  Si          0.30335      0.62402      0.53432  1.0000
  Si          0.37233      0.68163      0.86441  1.0000
  Si          0.32217      0.69951      0.20106  1.0000
  Si          0.37972      0.70286      0.30216  1.0000
  Si          0.32073      0.62195      0.96716  1.0000
  Si          0.30335      0.67923      0.63518  1.0000
  Si          0.63916      0.30482      0.79996  1.0000
  Si          0.68115      0.38151      0.46758  1.0000
  Si          0.70103      0.31862      0.13428  1.0000
  Si          0.53161      0.41373      0.96571  1.0000
  Si          0.58460      0.11400      0.30188  1.0000
  Si          0.89481      0.47346      0.63409  1.0000
  Si          0.47418      0.58510      0.46920  1.0000
  Si          0.42676      0.90080      0.80208  1.0000
  Si          0.11188      0.52483      0.13540  1.0000
  Si          0.41833      0.53121      0.36718  1.0000
  Si          0.11239      0.57915      0.03364  1.0000
  Si          0.47600      0.89157      0.70061  1.0000
  Si          0.58838      0.46738      0.86253  1.0000
  Si          0.89385      0.42019      0.53224  1.0000
  Si          0.52948      0.11047      0.19983  1.0000
  Ge          0.31357      0.41123      0.85823  1.0000
  Si          0.59982      0.90123      0.18662  1.0000
  Si          0.10221      0.70050      0.51875  1.0000
  Si          0.69861      0.60254      0.35258  1.0000
  Si          0.40661      0.10196      0.68582  1.0000
  Si          0.90072      0.30003      0.01778  1.0000
  Si          0.40309      0.30483      0.48289  1.0000
  Si          0.90350      0.59710      0.15073  1.0000
  Si          0.71094      0.10217      0.81572  1.0000
  Si          0.60310      0.69880      0.98048  1.0000
  Si          0.10310      0.40058      0.64934  1.0000
  Si          0.30384      0.90488      0.31636  1.0000
  Si          0.24732      0.33472      0.95475  1.0000
  Si          0.66115      0.91207      0.28741  1.0000
  Si          0.09489      0.75224      0.61965  1.0000
  Si          0.75290      0.66211      0.45348  1.0000
  Si          0.35274      0.10396      0.78679  1.0000
  Si          0.91018      0.24602      0.11831  1.0000
  Si          0.34192      0.25341      0.38187  1.0000
  Si          0.91031      0.65410      0.05001  1.0000
  Si          0.75700      0.09111      0.71478  1.0000
  Si          0.65928      0.74868      0.87832  1.0000
  Si          0.09511      0.34299      0.54812  1.0000
  Si          0.25113      0.90889      0.21531  1.0000
  Ge          0.97030      0.11728      0.96915  1.0000
  Si          0.87873      0.84919      0.30214  1.0000
  Si          0.15719      0.03221      0.63468  1.0000
  Si          0.03391      0.88024      0.46841  1.0000
  Si          0.13089      0.16183      0.80245  1.0000
  Si          0.84647      0.96603      0.13603  1.0000
  Si          0.12442      0.97291      0.36731  1.0000
  Si          0.84856      0.87074      0.03525  1.0000
  Si          0.03687      0.15371      0.70036  1.0000
  Si          0.88538      0.02531      0.86469  1.0000
  Si          0.15653      0.12496      0.53356  1.0000
  Si          0.97030      0.84608      0.20111  1.0000
  O3          0.93266      0.99172      0.00512  1.0000
  O2          0.00126      0.92956      0.33481  1.0000
  O2          0.07766      0.07398      0.66714  1.0000
  O2          0.07616      0.00253      0.50090  1.0000
  O2          0.00558      0.06489      0.83208  1.0000
  O2          0.92747      0.92642      0.16918  1.0000
  O2          0.34131      0.58058      0.33488  1.0000
  O2          0.42591      0.76457      0.66860  1.0000
  O2          0.23785      0.65848      0.00137  1.0000
  O2          0.67886      0.42865      0.83306  1.0000
  O2          0.57867      0.23463      0.16699  1.0000
  O2          0.76725      0.34309      0.49964  1.0000
  O2          0.57883      0.33961      0.99978  1.0000
  O2          0.76916      0.42295      0.66617  1.0000
  O2          0.66135      0.24092      0.33395  1.0000
  O2          0.42673      0.66222      0.50188  1.0000
  O2          0.23765      0.57485      0.16838  1.0000
  O2          0.34525      0.78032      0.83579  1.0000
  O3          0.13128      0.21948      0.98171  1.0000
  O2          0.78861      0.91334      0.30739  1.0000
  O2          0.09418      0.87812      0.63963  1.0000
  O2          0.87959      0.78887      0.47369  1.0000
  O2          0.23088      0.10751      0.80808  1.0000
  O2          0.91121      0.12088      0.13864  1.0000
  O2          0.21446      0.12684      0.36179  1.0000
  O2          0.90992      0.77882      0.02987  1.0000
  O2          0.88196      0.08948      0.69449  1.0000
  O2          0.78409      0.87221      0.85749  1.0000
  O2          0.09396      0.21625      0.52786  1.0000
  O2          0.12435      0.90884      0.19513  1.0000
  O2          0.93172      0.86036      0.25169  1.0000
  O2          0.14390      0.07235      0.58406  1.0000
  O3          0.93480      0.05003      0.91606  1.0000
  O2          0.07907      0.14207      0.75061  1.0000
  O2          0.85396      0.91731      0.08641  1.0000
  O2          0.07285      0.93302      0.41785  1.0000
  O3          0.89191      0.20266      0.97840  1.0000
  O2          0.79565      0.69819      0.31400  1.0000
  O2          0.30924      0.10167      0.64694  1.0000
  O2          0.10387      0.79862      0.48034  1.0000
  O3          0.19871      0.30668      0.81640  1.0000
  O2          0.69554      0.89873      0.14828  1.0000
  O2          0.20688      0.90421      0.35485  1.0000
  O2          0.69768      0.79292      0.01994  1.0000
  O2          0.10495      0.30485      0.68772  1.0000
  O2          0.80848      0.10187      0.85455  1.0000
  O2          0.30816      0.20707      0.52139  1.0000
  O2          0.90128      0.69399      0.18907  1.0000
  O2          0.32247      0.64424      0.25162  1.0000
  O2          0.36144      0.68082      0.58490  1.0000
  O2          0.31984      0.67571      0.91668  1.0000
  O2          0.69341      0.36122      0.74958  1.0000
  O2          0.64176      0.31856      0.08400  1.0000
  O2          0.68071      0.32508      0.41696  1.0000
  O2          0.37643      0.32900      0.96875  1.0000
  O2          0.67215      0.04536      0.30528  1.0000
  O2          0.96249      0.62943      0.63750  1.0000
  O2          0.63089      0.67240      0.47190  1.0000
  O2          0.34132      0.97082      0.80448  1.0000
  O2          0.04288      0.36869      0.13732  1.0000
  O2          0.33074      0.37502      0.36362  1.0000
  O2          0.04233      0.66509      0.03098  1.0000
  O2          0.63225      0.95898      0.69682  1.0000
  O2          0.66758      0.62459      0.86210  1.0000
  O2          0.96250      0.33278      0.52918  1.0000
  O2          0.37276      0.04085      0.19655  1.0000
  O2          0.76704      0.30134      0.01118  1.0000
  O2          0.69723      0.46824      0.34434  1.0000
  O2          0.54262      0.23280      0.67737  1.0000
  O2          0.23598      0.69959      0.51154  1.0000
  O3          0.29549      0.54422      0.84100  1.0000
  O2          0.46523      0.76740      0.17870  1.0000
  O2          0.30493      0.77180      0.32401  1.0000
  O2          0.46809      0.69646      0.98655  1.0000
  O2          0.23642      0.53600      0.65701  1.0000
  O2          0.71510      0.23808      0.82288  1.0000
  O2          0.53819      0.30622      0.48995  1.0000
  O2          0.77025      0.46176      0.15717  1.0000
  O2          0.78084      0.53137      0.03019  1.0000
  O2          0.46614      0.25123      0.36178  1.0000
  O2          0.75992      0.21762      0.69463  1.0000
  O2          0.22178      0.46804      0.52887  1.0000
  O2          0.52908      0.74338      0.86119  1.0000
  O2          0.24806      0.78134      0.19582  1.0000
  O2          0.53612      0.78640      0.30709  1.0000
  O2          0.25598      0.46825      0.97172  1.0000
  O2          0.22112      0.75295      0.63965  1.0000
  O2          0.48351      0.22638      0.80584  1.0000
  O2          0.75463      0.53734      0.47278  1.0000
  O2          0.78332      0.24468      0.13752  1.0000
  O3          0.21130      0.30556      0.90219  1.0000
  O2          0.67674      0.90772      0.23297  1.0000
  O2          0.09698      0.77081      0.56515  1.0000
  O2          0.77087      0.67835      0.39899  1.0000
  O2          0.33545      0.10407      0.73213  1.0000
  O2          0.90839      0.22750      0.06359  1.0000
  O2          0.32650      0.23463      0.43630  1.0000
  O2          0.90972      0.67222      0.10442  1.0000
  O2          0.77853      0.09383      0.76928  1.0000
  O2          0.67144      0.76441      0.93323  1.0000
  O2          0.09798      0.32641      0.60253  1.0000
  O2          0.23280      0.90832      0.26971  1.0000
  O2          0.58356      0.55734      0.98575  1.0000
  O2          0.44385      0.03032      0.32501  1.0000
  O2          0.97852      0.41627      0.65749  1.0000
  O2          0.41804      0.44429      0.49200  1.0000
  O2          0.56954      0.98015      0.82538  1.0000
  O2          0.02805      0.58117      0.15918  1.0000
  O2          0.55900      0.58900      0.34374  1.0000
  O2          0.02859      0.43862      0.00955  1.0000
  O2          0.41747      0.97462      0.67780  1.0000
  O3          0.45090      0.40622      0.83808  1.0000
  O2          0.97691      0.56096      0.50910  1.0000
  O2          0.58683      0.02653      0.17697  1.0000
  O2          0.58358      0.16532      0.25075  1.0000
  O2          0.84085      0.42026      0.58300  1.0000
  O2          0.58308      0.41578      0.91476  1.0000
  O2          0.42486      0.84189      0.75186  1.0000
  O2          0.16571      0.57888      0.08469  1.0000
  O2          0.41924      0.58419      0.41826  1.0000
  F           0.45269      0.90394      0.25067  1.0000
  F           0.10226      0.55130      0.58333  1.0000
  F           0.42279      0.51754      0.90590  1.0000
  F           0.56144      0.10301      0.75096  1.0000
  F           0.90364      0.44769      0.08330  1.0000
  F           0.55067      0.45408      0.41702  1.0000
