data_cif

_audit_creation_method             'generated by GULP'

_symmetry_space_group_name_H-M     'P 1'
_symmetry_Int_Tables_number        1
_symmetry_cell_setting             triclinic

_cell_length_a                       11.9614
_cell_length_b                       11.9772
_cell_length_c                       29.4714
_cell_angle_alpha                   89.8510
_cell_angle_beta                    89.6400
_cell_angle_gamma                  120.1996

loop_
_atom_site_label
_atom_site_fract_x
_atom_site_fract_y
_atom_site_fract_z
_atom_site_occupancy
  Si          0.69960      0.37570      0.03389  1.0000
  Si          0.60734      0.31475      0.36600  1.0000
  Si          0.65618      0.27927      0.69816  1.0000
  Si          0.27818      0.60803      0.53135  1.0000
  Si          0.36429      0.66891      0.86320  1.0000
  Si          0.31557      0.69827      0.19967  1.0000
  Si          0.36666      0.69469      0.30028  1.0000
  Si          0.31734      0.61997      0.96670  1.0000
  Si          0.27668      0.66094      0.63184  1.0000
  Si          0.59949      0.27331      0.79856  1.0000
  Si          0.65907      0.36770      0.46661  1.0000
  Si          0.69664      0.31953      0.13441  1.0000
  Si          0.52551      0.40675      0.96789  1.0000
  Si          0.57213      0.10587      0.30131  1.0000
  Si          0.86698      0.45451      0.63304  1.0000
  Si          0.45216      0.57146      0.46657  1.0000
  Si          0.38985      0.86859      0.79790  1.0000
  Si          0.10771      0.52779      0.13420  1.0000
  Si          0.40252      0.52059      0.36495  1.0000
  Si          0.10771      0.58037      0.03264  1.0000
  Si          0.44694      0.87010      0.69669  1.0000
  Si          0.57700      0.45539      0.86358  1.0000
  Si          0.86775      0.40371      0.53144  1.0000
  Si          0.52285      0.10841      0.19968  1.0000
  Si          0.29084      0.38604      0.84814  1.0000
  Si          0.59476      0.90023      0.18536  1.0000
  Si          0.07748      0.68507      0.51706  1.0000
  Si          0.68390      0.59264      0.35104  1.0000
  Si          0.37766      0.08041      0.68282  1.0000
  Si          0.90023      0.29843      0.01855  1.0000
  Si          0.37991      0.29037      0.48116  1.0000
  Si          0.89781      0.59846      0.14895  1.0000
  Si          0.67357      0.07061      0.81409  1.0000
  Si          0.59631      0.69214      0.98457  1.0000
  Si          0.07533      0.38195      0.64693  1.0000
  Si          0.28987      0.89573      0.31537  1.0000
  Ge          0.24008      0.32693      0.95195  1.0000
  Si          0.64943      0.90479      0.28599  1.0000
  Si          0.06850      0.73427      0.61770  1.0000
  Si          0.73171      0.64910      0.45160  1.0000
  Si          0.31602      0.07150      0.78326  1.0000
  Si          0.90653      0.24812      0.11929  1.0000
  Si          0.32552      0.24204      0.38045  1.0000
  Si          0.90624      0.65730      0.04826  1.0000
  Si          0.72647      0.06908      0.71296  1.0000
  Ge          0.63119      0.71988      0.88431  1.0000
  Si          0.06868      0.32614      0.54620  1.0000
  Si          0.24312      0.90631      0.21469  1.0000
  Si          0.95314      0.10842      0.96663  1.0000
  Si          0.86633      0.84171      0.30070  1.0000
  Si          0.13038      0.01411      0.63298  1.0000
  Si          0.01175      0.86684      0.46683  1.0000
  Si          0.10206      0.13820      0.79949  1.0000
  Si          0.84437      0.96856      0.13497  1.0000
  Si          0.10815      0.96200      0.36593  1.0000
  Si          0.83768      0.86942      0.03500  1.0000
  Si          0.00778      0.13429      0.69850  1.0000
  Si          0.85632      0.00738      0.86619  1.0000
  Si          0.13076      0.10878      0.53213  1.0000
  Si          0.96361      0.84503      0.19989  1.0000
  O2          0.90230      0.98620      0.99966  1.0000
  O2          0.98698      0.92028      0.33344  1.0000
  O2          0.05149      0.05438      0.66678  1.0000
  O2          0.05220      0.98686      0.49982  1.0000
  O2          0.98407      0.06631      0.83410  1.0000
  O2          0.92322      0.92641      0.16764  1.0000
  O2          0.32669      0.57008      0.33254  1.0000
  O2          0.39969      0.74536      0.66427  1.0000
  O2          0.23250      0.65839      0.99944  1.0000
  O2          0.64331      0.39414      0.83237  1.0000
  O2          0.57286      0.23469      0.16726  1.0000
  O2          0.74219      0.32786      0.49923  1.0000
  O2          0.57812      0.33474      0.00053  1.0000
  O2          0.74128      0.40404      0.66577  1.0000
  O2          0.64765      0.23092      0.33367  1.0000
  O2          0.40246      0.64772      0.49866  1.0000
  O2          0.23253      0.57618      0.16657  1.0000
  O2          0.31165      0.74253      0.83074  1.0000
  O3          0.10678      0.19076      0.97340  1.0000
  O2          0.77543      0.90494      0.30611  1.0000
  O2          0.06712      0.85951      0.63785  1.0000
  O2          0.85698      0.77562      0.47186  1.0000
  O2          0.19013      0.07146      0.80391  1.0000
  O2          0.90778      0.12303      0.13992  1.0000
  O2          0.19953      0.11626      0.36011  1.0000
  O2          0.90758      0.78456      0.02852  1.0000
  O2          0.85332      0.06958      0.69274  1.0000
  O3          0.77628      0.85767      0.86248  1.0000
  O2          0.06774      0.19958      0.52610  1.0000
  O2          0.11816      0.90817      0.19448  1.0000
  O2          0.92168      0.85649      0.25030  1.0000
  O2          0.11588      0.05600      0.58287  1.0000
  O2          0.91243      0.06179      0.91600  1.0000
  O2          0.04577      0.12413      0.74950  1.0000
  O2          0.85997      0.92945      0.08463  1.0000
  O2          0.05415      0.92223      0.41650  1.0000
  O2          0.89736      0.20292      0.97934  1.0000
  O2          0.78314      0.68961      0.31244  1.0000
  O2          0.28253      0.08328      0.64420  1.0000
  O2          0.08035      0.78404      0.47863  1.0000
  O2          0.19415      0.29124      0.80935  1.0000
  O2          0.69218      0.89923      0.14691  1.0000
  O2          0.19046      0.89267      0.35380  1.0000
  O2          0.68406      0.77705      0.02730  1.0000
  O2          0.07714      0.28561      0.68537  1.0000
  O2          0.76684      0.06970      0.85313  1.0000
  O2          0.28294      0.19162      0.51980  1.0000
  O2          0.89450      0.69368      0.18738  1.0000
  O2          0.31205      0.63884      0.24984  1.0000
  O2          0.33539      0.66365      0.58150  1.0000
  O2          0.31421      0.66787      0.91533  1.0000
  O2          0.65612      0.33509      0.74849  1.0000
  O2          0.63989      0.31841      0.08412  1.0000
  O2          0.66209      0.31283      0.41630  1.0000
  O3          0.37153      0.31697      0.96995  1.0000
  O2          0.65937      0.03699      0.30433  1.0000
  O2          0.93540      0.61082      0.63599  1.0000
  O2          0.60872      0.65897      0.46963  1.0000
  O2          0.30202      0.93664      0.80080  1.0000
  O2          0.03921      0.37137      0.13694  1.0000
  O2          0.31532      0.36414      0.36184  1.0000
  O2          0.03825      0.66688      0.02921  1.0000
  O2          0.60359      0.93863      0.69375  1.0000
  O3          0.66644      0.60751      0.85850  1.0000
  O2          0.93627      0.31617      0.52805  1.0000
  O2          0.36638      0.03951      0.19641  1.0000
  O2          0.76793      0.30137      0.01141  1.0000
  O2          0.68332      0.45848      0.34345  1.0000
  O2          0.51386      0.21300      0.67511  1.0000
  O2          0.21108      0.68410      0.50910  1.0000
  O2          0.29448      0.52219      0.84360  1.0000
  O2          0.45997      0.76686      0.17748  1.0000
  O2          0.29048      0.76192      0.32254  1.0000
  O2          0.46144      0.69437      0.98789  1.0000
  O2          0.20898      0.51701      0.65410  1.0000
  O2          0.67439      0.20521      0.82034  1.0000
  O2          0.51450      0.29166      0.48864  1.0000
  O2          0.76426      0.46296      0.15639  1.0000
  O2          0.77902      0.53225      0.02884  1.0000
  O2          0.45105      0.24045      0.36094  1.0000
  O2          0.73047      0.19748      0.69388  1.0000
  O2          0.19593      0.45177      0.52636  1.0000
  O3          0.51765      0.74948      0.85682  1.0000
  O2          0.24143      0.78006      0.19482  1.0000
  O2          0.52294      0.77755      0.30529  1.0000
  O3          0.25138      0.46639      0.97177  1.0000
  O2          0.19445      0.73460      0.63702  1.0000
  O2          0.44256      0.19540      0.80363  1.0000
  O2          0.73253      0.52381      0.47134  1.0000
  O2          0.77978      0.24682      0.13895  1.0000
  O3          0.22160      0.31326      0.89435  1.0000
  O2          0.66852      0.90400      0.23168  1.0000
  O2          0.07209      0.75470      0.56337  1.0000
  O2          0.75335      0.66736      0.39728  1.0000
  O2          0.30119      0.07683      0.72893  1.0000
  O2          0.90428      0.22800      0.06502  1.0000
  O2          0.30616      0.22112      0.43474  1.0000
  O2          0.90374      0.67387      0.10257  1.0000
  O2          0.74246      0.06569      0.76719  1.0000
  O3          0.67985      0.76859      0.94121  1.0000
  O2          0.07061      0.30797      0.60047  1.0000
  O2          0.22144      0.90201      0.26895  1.0000
  O2          0.57074      0.54645      0.99020  1.0000
  O2          0.42977      0.02080      0.32423  1.0000
  O2          0.95034      0.39661      0.65588  1.0000
  O2          0.39408      0.42976      0.48975  1.0000
  O2          0.52965      0.95006      0.82171  1.0000
  O2          0.02295      0.58402      0.15744  1.0000
  O2          0.54477      0.57900      0.34187  1.0000
  O2          0.02788      0.43800      0.00989  1.0000
  O2          0.38959      0.95400      0.67373  1.0000
  O2          0.43255      0.40335      0.84299  1.0000
  O2          0.95172      0.54560      0.50821  1.0000
  O2          0.58168      0.02607      0.17642  1.0000
  O2          0.57436      0.16053      0.25050  1.0000
  O2          0.81382      0.40216      0.58233  1.0000
  O2          0.57532      0.40992      0.91628  1.0000
  O2          0.39125      0.81520      0.74733  1.0000
  O2          0.16189      0.58220      0.08331  1.0000
  O2          0.40058      0.57238      0.41571  1.0000
  F           0.44264      0.89863      0.24980  1.0000
  F           0.07598      0.53360      0.58155  1.0000
  F           0.47860      0.57162      0.91121  1.0000
  F           0.52254      0.07685      0.74734  1.0000
  F           0.90005      0.45001      0.08289  1.0000
  F           0.53191      0.44214      0.41560  1.0000
