data_cif

_audit_creation_method             'generated by GULP'

_symmetry_space_group_name_H-M     'P 1'
_symmetry_Int_Tables_number        1
_symmetry_cell_setting             triclinic

_cell_length_a                       12.0036
_cell_length_b                       11.9679
_cell_length_c                       29.4865
_cell_angle_alpha                   89.6291
_cell_angle_beta                    89.9981
_cell_angle_gamma                  120.3884

loop_
_atom_site_label
_atom_site_fract_x
_atom_site_fract_y
_atom_site_fract_z
_atom_site_occupancy
  Si          0.69960      0.37570      0.03389  1.0000
  Si          0.60479      0.31713      0.36630  1.0000
  Si          0.65575      0.28276      0.70014  1.0000
  Si          0.28092      0.61281      0.53273  1.0000
  Si          0.35529      0.66129      0.86705  1.0000
  Si          0.31175      0.69897      0.20099  1.0000
  Si          0.36547      0.69798      0.30144  1.0000
  Si          0.30450      0.61324      0.97021  1.0000
  Si          0.27868      0.65930      0.63383  1.0000
  Si          0.59673      0.28081      0.80015  1.0000
  Si          0.65862      0.37005      0.46689  1.0000
  Si          0.69358      0.31854      0.13418  1.0000
  Si          0.51644      0.39876      0.96966  1.0000
  Si          0.57014      0.10899      0.30118  1.0000
  Si          0.86557      0.44924      0.63361  1.0000
  Si          0.45348      0.57586      0.46799  1.0000
  Si          0.39351      0.87187      0.80102  1.0000
  Si          0.10233      0.52853      0.13605  1.0000
  Si          0.40171      0.52421      0.36641  1.0000
  Si          0.10441      0.58661      0.03491  1.0000
  Si          0.44562      0.86852      0.69969  1.0000
  Si          0.56191      0.45327      0.86572  1.0000
  Si          0.86811      0.40588      0.53176  1.0000
  Si          0.51860      0.10852      0.19956  1.0000
  Si          0.27646      0.37955      0.84965  1.0000
  Si          0.59081      0.90030      0.18590  1.0000
  Si          0.07970      0.68993      0.51898  1.0000
  Si          0.68231      0.59672      0.35165  1.0000
  Si          0.37820      0.08032      0.68430  1.0000
  Si          0.90205      0.30241      0.01831  1.0000
  Si          0.38157      0.29439      0.48209  1.0000
  Si          0.89256      0.59759      0.14974  1.0000
  Si          0.67452      0.08035      0.81616  1.0000
  Si          0.58587      0.68387      0.98388  1.0000
  Si          0.07517      0.37932      0.64683  1.0000
  Si          0.28886      0.89865      0.31529  1.0000
  Ge          0.25253      0.34601      0.94971  1.0000
  Si          0.64748      0.90810      0.28661  1.0000
  Si          0.06944      0.72903      0.62008  1.0000
  Si          0.73128      0.65181      0.45227  1.0000
  Si          0.31475      0.07144      0.78451  1.0000
  Si          0.90325      0.24855      0.11935  1.0000
  Si          0.32394      0.24455      0.38164  1.0000
  Si          0.90155      0.65961      0.04941  1.0000
  Si          0.72400      0.07203      0.71564  1.0000
  Si          0.64211      0.73510      0.88155  1.0000
  Si          0.07001      0.32966      0.54577  1.0000
  Si          0.23851      0.90700      0.21476  1.0000
  Si          0.96566      0.11979      0.96686  1.0000
  Si          0.86417      0.84546      0.30024  1.0000
  Ge          0.12773      0.01123      0.63325  1.0000
  Si          0.01184      0.86863      0.46627  1.0000
  Si          0.09881      0.13511      0.79949  1.0000
  Si          0.83752      0.96677      0.13415  1.0000
  Si          0.10667      0.96327      0.36535  1.0000
  Si          0.83508      0.87356      0.03302  1.0000
  Si          0.00153      0.13102      0.69925  1.0000
  Si          0.85921      0.01955      0.86722  1.0000
  Si          0.13025      0.11244      0.53043  1.0000
  Si          0.95853      0.84501      0.19952  1.0000
  O2          0.90885      0.99358      0.99954  1.0000
  O2          0.98766      0.92455      0.33196  1.0000
  O3          0.03483      0.04584      0.66774  1.0000
  O2          0.05463      0.99466      0.49605  1.0000
  O2          0.97929      0.06059      0.83378  1.0000
  O2          0.91837      0.92386      0.16568  1.0000
  O2          0.32568      0.57378      0.33420  1.0000
  O2          0.39972      0.74325      0.66751  1.0000
  O2          0.23107      0.66603      0.00250  1.0000
  O2          0.63609      0.40406      0.83281  1.0000
  O2          0.56911      0.23378      0.16662  1.0000
  O2          0.74339      0.33091      0.49911  1.0000
  O2          0.57878      0.33220      0.00004  1.0000
  O2          0.74153      0.40399      0.66652  1.0000
  O2          0.64496      0.23470      0.33358  1.0000
  O2          0.40484      0.65265      0.50020  1.0000
  O2          0.22687      0.57557      0.16861  1.0000
  O2          0.31842      0.74667      0.83443  1.0000
  O3          0.11512      0.20048      0.97124  1.0000
  O2          0.77425      0.90911      0.30647  1.0000
  O3          0.06501      0.84820      0.64207  1.0000
  O2          0.85780      0.77727      0.47275  1.0000
  O2          0.18774      0.06943      0.80448  1.0000
  O2          0.90280      0.12159      0.13939  1.0000
  O2          0.19716      0.11858      0.36161  1.0000
  O2          0.90118      0.78536      0.02885  1.0000
  O2          0.84795      0.07164      0.69486  1.0000
  O2          0.76674      0.86349      0.86187  1.0000
  O2          0.06970      0.20542      0.52416  1.0000
  O2          0.11316      0.90841      0.19483  1.0000
  O2          0.91560      0.85910      0.24943  1.0000
  O3          0.10575      0.05150      0.57973  1.0000
  O2          0.91063      0.06037      0.91734  1.0000
  O2          0.04118      0.11760      0.74979  1.0000
  O2          0.84493      0.92631      0.08332  1.0000
  O2          0.04930      0.91498      0.41498  1.0000
  O2          0.90306      0.20921      0.97924  1.0000
  O2          0.78072      0.69336      0.31292  1.0000
  O3          0.29012      0.08850      0.64491  1.0000
  O2          0.08251      0.78955      0.48079  1.0000
  O2          0.18736      0.28896      0.80807  1.0000
  O2          0.68670      0.89783      0.14766  1.0000
  O2          0.19017      0.89606      0.35346  1.0000
  O2          0.68302      0.78350      0.02125  1.0000
  O2          0.07703      0.28251      0.68517  1.0000
  O2          0.77333      0.08446      0.85453  1.0000
  O2          0.28409      0.19581      0.52080  1.0000
  O2          0.88961      0.69265      0.18833  1.0000
  O2          0.30932      0.64044      0.25132  1.0000
  O2          0.33761      0.66534      0.58340  1.0000
  O2          0.30382      0.66143      0.91793  1.0000
  O2          0.65721      0.34041      0.75029  1.0000
  O2          0.63767      0.31849      0.08384  1.0000
  O2          0.65955      0.31440      0.41668  1.0000
  O3          0.36458      0.30821      0.97459  1.0000
  O2          0.65765      0.04072      0.30472  1.0000
  O2          0.93558      0.60498      0.63696  1.0000
  O2          0.61007      0.66283      0.47095  1.0000
  O2          0.30601      0.93997      0.80410  1.0000
  O2          0.03354      0.37167      0.13882  1.0000
  O2          0.31401      0.36735      0.36347  1.0000
  O2          0.03640      0.67422      0.03203  1.0000
  O2          0.60183      0.93838      0.69786  1.0000
  O2          0.64728      0.61062      0.86328  1.0000
  O2          0.93782      0.32002      0.52787  1.0000
  O2          0.36233      0.04016      0.19655  1.0000
  O2          0.76738      0.30100      0.01201  1.0000
  O2          0.68066      0.46194      0.34437  1.0000
  O2          0.51295      0.21533      0.67822  1.0000
  O2          0.21319      0.68925      0.51127  1.0000
  O2          0.28141      0.51786      0.84509  1.0000
  O2          0.45548      0.76643      0.17880  1.0000
  O2          0.28972      0.76516      0.32352  1.0000
  O2          0.45212      0.68386      0.98917  1.0000
  O2          0.20944      0.51371      0.65504  1.0000
  O2          0.66984      0.21198      0.82334  1.0000
  O2          0.51534      0.29452      0.48973  1.0000
  O2          0.76003      0.46101      0.15730  1.0000
  O2          0.77754      0.53285      0.02893  1.0000
  O2          0.44868      0.24348      0.36179  1.0000
  O2          0.72701      0.19908      0.69584  1.0000
  O2          0.19749      0.45679      0.52699  1.0000
  O2          0.51059      0.72617      0.86464  1.0000
  O2          0.23818      0.78100      0.19557  1.0000
  O2          0.52178      0.78076      0.30646  1.0000
  O3          0.22432      0.46003      0.97763  1.0000
  O2          0.19654      0.73187      0.63949  1.0000
  O2          0.43996      0.20013      0.80358  1.0000
  O2          0.73305      0.52646      0.47175  1.0000
  O2          0.77493      0.24408      0.13836  1.0000
  O3          0.19876      0.29777      0.89295  1.0000
  O2          0.66505      0.90587      0.23239  1.0000
  O2          0.07674      0.75831      0.56589  1.0000
  O2          0.75168      0.67108      0.39802  1.0000
  O2          0.29731      0.07111      0.72996  1.0000
  O2          0.90691      0.23325      0.06513  1.0000
  O2          0.30629      0.22385      0.43595  1.0000
  O2          0.89641      0.67433      0.10371  1.0000
  O2          0.74446      0.07620      0.76987  1.0000
  O2          0.65405      0.74467      0.93569  1.0000
  O2          0.07206      0.30755      0.60000  1.0000
  O2          0.21879      0.90356      0.26904  1.0000
  O2          0.56649      0.54211      0.99131  1.0000
  O2          0.42832      0.02480      0.32423  1.0000
  O2          0.94828      0.38979      0.65591  1.0000
  O2          0.39577      0.43382      0.49123  1.0000
  O2          0.53482      0.95269      0.82446  1.0000
  O2          0.01873      0.58578      0.15895  1.0000
  O2          0.54294      0.58213      0.34311  1.0000
  O2          0.02244      0.44685      0.01085  1.0000
  O2          0.39108      0.95403      0.67600  1.0000
  O2          0.42039      0.40034      0.84408  1.0000
  O2          0.95309      0.55035      0.51029  1.0000
  O2          0.57624      0.02516      0.17683  1.0000
  O2          0.57161      0.16245      0.25023  1.0000
  O2          0.81255      0.39868      0.58272  1.0000
  O2          0.56312      0.40405      0.91686  1.0000
  O2          0.39063      0.81576      0.75063  1.0000
  O2          0.15724      0.58465      0.08552  1.0000
  O2          0.40138      0.57664      0.41717  1.0000
  F           0.43960      0.90002      0.25112  1.0000
  F           0.07683      0.53388      0.58339  1.0000
  F           0.39841      0.49544      0.92269  1.0000
  F           0.52189      0.07788      0.75091  1.0000
  F           0.89557      0.45270      0.08516  1.0000
  F           0.53080      0.44492      0.41746  1.0000
