data_cif

_audit_creation_method             'generated by GULP'

_symmetry_space_group_name_H-M     'P 1'
_symmetry_Int_Tables_number        1
_symmetry_cell_setting             triclinic

_cell_length_a                       11.9883
_cell_length_b                       11.9646
_cell_length_c                       29.4975
_cell_angle_alpha                   89.7515
_cell_angle_beta                    89.8551
_cell_angle_gamma                  120.2146

loop_
_atom_site_label
_atom_site_fract_x
_atom_site_fract_y
_atom_site_fract_z
_atom_site_occupancy
  Si          0.69960      0.37570      0.03389  1.0000
  Si          0.60406      0.31547      0.36544  1.0000
  Si          0.65254      0.27973      0.69704  1.0000
  Si          0.27767      0.60860      0.53170  1.0000
  Si          0.35370      0.65926      0.86507  1.0000
  Si          0.31032      0.69587      0.20046  1.0000
  Si          0.36363      0.69585      0.30097  1.0000
  Si          0.30638      0.61586      0.96861  1.0000
  Si          0.27385      0.66014      0.63224  1.0000
  Si          0.59738      0.27906      0.79755  1.0000
  Si          0.65756      0.36774      0.46596  1.0000
  Si          0.69379      0.31576      0.13370  1.0000
  Si          0.52182      0.40033      0.96751  1.0000
  Si          0.56799      0.10625      0.30076  1.0000
  Si          0.86389      0.45276      0.63200  1.0000
  Si          0.45190      0.57266      0.46715  1.0000
  Si          0.39426      0.87053      0.79913  1.0000
  Si          0.10247      0.52501      0.13526  1.0000
  Si          0.40063      0.52239      0.36561  1.0000
  Si          0.10710      0.58714      0.03445  1.0000
  Si          0.44479      0.86873      0.69760  1.0000
  Si          0.56128      0.45045      0.86330  1.0000
  Si          0.86672      0.40305      0.53046  1.0000
  Si          0.51743      0.10614      0.19920  1.0000
  Si          0.27432      0.37697      0.84764  1.0000
  Si          0.58929      0.89738      0.18589  1.0000
  Si          0.07673      0.68525      0.51649  1.0000
  Si          0.68142      0.59455      0.35096  1.0000
  Si          0.37358      0.07819      0.68294  1.0000
  Si          0.90325      0.30465      0.01674  1.0000
  Si          0.37999      0.29140      0.48093  1.0000
  Si          0.89289      0.59429      0.15024  1.0000
  Si          0.67549      0.07896      0.81282  1.0000
  Si          0.58887      0.68572      0.98084  1.0000
  Si          0.07194      0.38104      0.64644  1.0000
  Si          0.28690      0.89673      0.31503  1.0000
  Ge          0.26014      0.35127      0.94791  1.0000
  Si          0.64550      0.90513      0.28646  1.0000
  Si          0.06598      0.73237      0.61708  1.0000
  Si          0.73018      0.64947      0.45159  1.0000
  Si          0.31590      0.07069      0.78362  1.0000
  Si          0.90416      0.24576      0.11725  1.0000
  Si          0.32295      0.24287      0.38047  1.0000
  Si          0.90236      0.65736      0.05018  1.0000
  Si          0.72434      0.07043      0.71210  1.0000
  Si          0.64093      0.73270      0.87827  1.0000
  Si          0.06766      0.32588      0.54590  1.0000
  Si          0.23767      0.90480      0.21442  1.0000
  Ge          0.97015      0.12148      0.96500  1.0000
  Si          0.86299      0.84330      0.30003  1.0000
  Si          0.12708      0.01188      0.63175  1.0000
  Si          0.01034      0.86668      0.46596  1.0000
  Si          0.09871      0.13309      0.79662  1.0000
  Si          0.83588      0.96311      0.13373  1.0000
  Si          0.10522      0.96267      0.36516  1.0000
  Si          0.83505      0.87001      0.03264  1.0000
  Si          0.00343      0.13126      0.69642  1.0000
  Si          0.85738      0.01444      0.86358  1.0000
  Si          0.13102      0.10908      0.53105  1.0000
  Si          0.95765      0.84239      0.19935  1.0000
  O3          0.91436      0.98916      0.00087  1.0000
  O2          0.98528      0.92211      0.33217  1.0000
  O2          0.04485      0.05253      0.66339  1.0000
  O2          0.05246      0.98850      0.49822  1.0000
  O2          0.97784      0.05737      0.82992  1.0000
  O2          0.91691      0.92061      0.16544  1.0000
  O2          0.32410      0.57177      0.33362  1.0000
  O2          0.39581      0.74341      0.66540  1.0000
  O2          0.23346      0.66785      0.00182  1.0000
  O2          0.63634      0.40274      0.82997  1.0000
  O2          0.56948      0.23118      0.16618  1.0000
  O2          0.74160      0.32754      0.49813  1.0000
  O2          0.58188      0.33380      0.99889  1.0000
  O2          0.73740      0.40313      0.66418  1.0000
  O2          0.64381      0.23222      0.33285  1.0000
  O2          0.40230      0.64842      0.49956  1.0000
  O2          0.22660      0.57233      0.16806  1.0000
  O2          0.31818      0.74545      0.83239  1.0000
  O1          0.12825      0.20787      0.97071  1.0000
  O2          0.77224      0.90625      0.30638  1.0000
  O2          0.06413      0.85744      0.63725  1.0000
  O2          0.85620      0.77548      0.47187  1.0000
  O2          0.18880      0.06920      0.80342  1.0000
  O2          0.90295      0.11847      0.13729  1.0000
  O2          0.19633      0.11745      0.36028  1.0000
  O2          0.90068      0.78118      0.02940  1.0000
  O2          0.84913      0.06865      0.69160  1.0000
  O2          0.76308      0.85894      0.85667  1.0000
  O2          0.06768      0.19985      0.52585  1.0000
  O2          0.11227      0.90604      0.19442  1.0000
  O2          0.91544      0.85795      0.24928  1.0000
  O2          0.11659      0.05335      0.58127  1.0000
  O3          0.90705      0.04724      0.91343  1.0000
  O2          0.04377      0.11472      0.74637  1.0000
  O2          0.83874      0.91843      0.08332  1.0000
  O2          0.04973      0.91996      0.41539  1.0000
  O3          0.90010      0.21490      0.97650  1.0000
  O2          0.78008      0.69122      0.31235  1.0000
  O2          0.27806      0.08125      0.64468  1.0000
  O2          0.07964      0.78448      0.47813  1.0000
  O2          0.18518      0.28675      0.80607  1.0000
  O2          0.68579      0.89571      0.14778  1.0000
  O2          0.18798      0.89416      0.35332  1.0000
  O2          0.68419      0.78390      0.01855  1.0000
  O2          0.07286      0.28365      0.68483  1.0000
  O2          0.77390      0.08271      0.85118  1.0000
  O2          0.28301      0.19239      0.51944  1.0000
  O2          0.88975      0.68966      0.18882  1.0000
  O2          0.30791      0.63817      0.25087  1.0000
  O2          0.33332      0.66341      0.58216  1.0000
  O2          0.30309      0.66117      0.91607  1.0000
  O2          0.65446      0.33716      0.74731  1.0000
  O2          0.63712      0.31840      0.08375  1.0000
  O2          0.65907      0.31269      0.41568  1.0000
  O3          0.37080      0.31114      0.97262  1.0000
  O2          0.65554      0.03786      0.30437  1.0000
  O2          0.93289      0.60923      0.63529  1.0000
  O2          0.60830      0.65982      0.47026  1.0000
  O2          0.30688      0.93894      0.80276  1.0000
  O2          0.03380      0.36821      0.13737  1.0000
  O2          0.31311      0.36581      0.36252  1.0000
  O2          0.03809      0.67390      0.03257  1.0000
  O2          0.60104      0.93733      0.69471  1.0000
  O2          0.64530      0.60735      0.86060  1.0000
  O2          0.93558      0.31584      0.52746  1.0000
  O2          0.36118      0.03774      0.19606  1.0000
  O2          0.76750      0.30143      0.01215  1.0000
  O2          0.68000      0.45990      0.34346  1.0000
  O2          0.50876      0.21191      0.67542  1.0000
  O2          0.21046      0.68462      0.50942  1.0000
  O2          0.27984      0.51579      0.84326  1.0000
  O2          0.45437      0.76380      0.17849  1.0000
  O2          0.28759      0.76309      0.32309  1.0000
  O2          0.45504      0.68611      0.98628  1.0000
  O2          0.20521      0.51588      0.65443  1.0000
  O2          0.67223      0.21140      0.82029  1.0000
  O2          0.51404      0.29198      0.48853  1.0000
  O2          0.76108      0.45727      0.15753  1.0000
  O2          0.77796      0.53218      0.02953  1.0000
  O2          0.44805      0.24200      0.36070  1.0000
  O2          0.72490      0.19644      0.69220  1.0000
  O2          0.19483      0.45231      0.52668  1.0000
  O2          0.50849      0.72313      0.86233  1.0000
  O2          0.23722      0.77859      0.19520  1.0000
  O2          0.51975      0.77822      0.30625  1.0000
  O3          0.22821      0.46338      0.97602  1.0000
  O2          0.19217      0.73432      0.63702  1.0000
  O2          0.44108      0.19831      0.80278  1.0000
  O2          0.73182      0.52404      0.47104  1.0000
  O2          0.77472      0.24034      0.13602  1.0000
  O3          0.19825      0.29894      0.89164  1.0000
  O2          0.66327      0.90234      0.23229  1.0000
  O2          0.07037      0.75379      0.56287  1.0000
  O2          0.75072      0.66853      0.39735  1.0000
  O2          0.29869      0.07231      0.72938  1.0000
  O2          0.91101      0.23282      0.06283  1.0000
  O2          0.30509      0.22162      0.43474  1.0000
  O2          0.89689      0.67153      0.10446  1.0000
  O2          0.74528      0.07495      0.76629  1.0000
  O2          0.65604      0.74642      0.93241  1.0000
  O2          0.06822      0.30708      0.60017  1.0000
  O2          0.21750      0.90190      0.26869  1.0000
  O2          0.57124      0.54473      0.98794  1.0000
  O2          0.42625      0.02255      0.32396  1.0000
  O2          0.94615      0.39411      0.65535  1.0000
  O2          0.39366      0.43053      0.49016  1.0000
  O2          0.53620      0.95162      0.82188  1.0000
  O2          0.01910      0.58197      0.15889  1.0000
  O2          0.54209      0.58030      0.34239  1.0000
  O2          0.02442      0.44873      0.00986  1.0000
  O2          0.38824      0.95317      0.67445  1.0000
  O2          0.41823      0.39620      0.84269  1.0000
  O2          0.95182      0.54526      0.50758  1.0000
  O2          0.57533      0.02253      0.17672  1.0000
  O2          0.56946      0.15984      0.24989  1.0000
  O2          0.81207      0.40101      0.58119  1.0000
  O2          0.56620      0.40316      0.91444  1.0000
  O2          0.39137      0.81542      0.74859  1.0000
  O2          0.15898      0.58270      0.08496  1.0000
  O2          0.40006      0.57433      0.41644  1.0000
  F           0.43821      0.89781      0.25087  1.0000
  F           0.07376      0.53277      0.58209  1.0000
  F           0.40099      0.49623      0.92024  1.0000
  F           0.52301      0.07704      0.74883  1.0000
  F           0.89727      0.45094      0.08478  1.0000
  F           0.53001      0.44290      0.41647  1.0000
