data_cif

_audit_creation_method             'generated by GULP'

_symmetry_space_group_name_H-M     'P 1'
_symmetry_Int_Tables_number        1
_symmetry_cell_setting             triclinic

_cell_length_a                       11.9725
_cell_length_b                       11.9678
_cell_length_c                       29.4609
_cell_angle_alpha                   90.1705
_cell_angle_beta                    90.0296
_cell_angle_gamma                  119.9125

loop_
_atom_site_label
_atom_site_fract_x
_atom_site_fract_y
_atom_site_fract_z
_atom_site_occupancy
  Si          0.69960      0.37570      0.03389  1.0000
  Si          0.61806      0.32202      0.36556  1.0000
  Si          0.67197      0.29393      0.69856  1.0000
  Si          0.29252      0.61721      0.53201  1.0000
  Si          0.37623      0.67354      0.86680  1.0000
  Si          0.32189      0.69939      0.19942  1.0000
  Si          0.37693      0.70063      0.30016  1.0000
  Si          0.32305      0.62010      0.96741  1.0000
  Si          0.29211      0.67279      0.63271  1.0000
  Si          0.62319      0.29521      0.79979  1.0000
  Si          0.67342      0.37746      0.46622  1.0000
  Si          0.70154      0.31926      0.13413  1.0000
  Si          0.53213      0.41528      0.96722  1.0000
  Si          0.58050      0.11097      0.30086  1.0000
  Si          0.88082      0.46608      0.63317  1.0000
  Si          0.46626      0.58132      0.46682  1.0000
  Si          0.41806      0.88130      0.80029  1.0000
  Si          0.11213      0.52545      0.13445  1.0000
  Si          0.41416      0.52818      0.36505  1.0000
  Si          0.11311      0.58014      0.03294  1.0000
  Si          0.46507      0.88259      0.69828  1.0000
  Si          0.58156      0.46427      0.86546  1.0000
  Si          0.88273      0.41364      0.53142  1.0000
  Si          0.52821      0.10998      0.19913  1.0000
  Si          0.30092      0.39586      0.85162  1.0000
  Si          0.59962      0.90072      0.18519  1.0000
  Si          0.09091      0.69394      0.51716  1.0000
  Si          0.69457      0.59979      0.35090  1.0000
  Si          0.39246      0.09234      0.68538  1.0000
  Si          0.90182      0.30125      0.01809  1.0000
  Si          0.39564      0.30109      0.48051  1.0000
  Si          0.90352      0.59722      0.14973  1.0000
  Si          0.69824      0.09235      0.81346  1.0000
  Si          0.60124      0.69518      0.98179  1.0000
  Si          0.09060      0.39553      0.64728  1.0000
  Si          0.30032      0.90220      0.31476  1.0000
  Si          0.25424      0.33988      0.95227  1.0000
  Si          0.65775      0.90924      0.28585  1.0000
  Si          0.08267      0.74420      0.61786  1.0000
  Si          0.74483      0.65834      0.45164  1.0000
  Si          0.34325      0.08468      0.78663  1.0000
  Si          0.91084      0.24711      0.11816  1.0000
  Si          0.33693      0.24953      0.37992  1.0000
  Si          0.91032      0.65485      0.04919  1.0000
  Si          0.74405      0.08473      0.71240  1.0000
  Si          0.65550      0.74207      0.88101  1.0000
  Si          0.08416      0.33626      0.54673  1.0000
  Si          0.24991      0.90882      0.21405  1.0000
  Ge          0.97127      0.11906      0.96730  1.0000
  Si          0.87559      0.84704      0.30051  1.0000
  Si          0.14649      0.02472      0.63189  1.0000
  Si          0.02506      0.87530      0.46619  1.0000
  Ge          0.12141      0.14560      0.79865  1.0000
  Si          0.84714      0.96689      0.13461  1.0000
  Si          0.11939      0.96914      0.36541  1.0000
  Si          0.84771      0.87175      0.03383  1.0000
  Si          0.02279      0.14578      0.69568  1.0000
  Si          0.87341      0.01909      0.86408  1.0000
  Si          0.14876      0.11932      0.53103  1.0000
  Si          0.96969      0.84604      0.19975  1.0000
  O3          0.93199      0.99096      0.00226  1.0000
  O2          0.99733      0.92707      0.33303  1.0000
  O2          0.06132      0.06806      0.66051  1.0000
  O2          0.06781      0.99856      0.49810  1.0000
  O3          0.98670      0.05106      0.82963  1.0000
  O2          0.92701      0.92535      0.16732  1.0000
  O2          0.33785      0.57743      0.33268  1.0000
  O2          0.41536      0.75779      0.66535  1.0000
  O2          0.23857      0.65767      0.00066  1.0000
  O2          0.66009      0.41787      0.83277  1.0000
  O2          0.57872      0.23541      0.16678  1.0000
  O2          0.75741      0.33795      0.49881  1.0000
  O2          0.57828      0.33811      0.00045  1.0000
  O2          0.75507      0.41640      0.66551  1.0000
  O2          0.65695      0.23701      0.33311  1.0000
  O2          0.41589      0.65657      0.49941  1.0000
  O2          0.23785      0.57534      0.16690  1.0000
  O2          0.33980      0.75777      0.83320  1.0000
  O3          0.13468      0.21674      0.97444  1.0000
  O2          0.78459      0.91032      0.30591  1.0000
  O2          0.08299      0.87075      0.63799  1.0000
  O2          0.87092      0.78521      0.47158  1.0000
  O3          0.22053      0.08262      0.80875  1.0000
  O2          0.91143      0.12156      0.13857  1.0000
  O2          0.21006      0.12327      0.36008  1.0000
  O2          0.90964      0.77970      0.02906  1.0000
  O2          0.86844      0.08363      0.69131  1.0000
  O2          0.77890      0.86549      0.85965  1.0000
  O2          0.08391      0.20925      0.52712  1.0000
  O2          0.12371      0.90935      0.19410  1.0000
  O2          0.92943      0.85984      0.25015  1.0000
  O2          0.14136      0.06335      0.58056  1.0000
  O3          0.93327      0.05983      0.91338  1.0000
  O3          0.06895      0.12713      0.74379  1.0000
  O2          0.85766      0.92367      0.08447  1.0000
  O2          0.06600      0.92766      0.41573  1.0000
  O3          0.89518      0.20530      0.97858  1.0000
  O2          0.79298      0.69571      0.31257  1.0000
  O2          0.29567      0.09464      0.64730  1.0000
  O2          0.09321      0.79219      0.47874  1.0000
  O3          0.20384      0.30662      0.81237  1.0000
  O2          0.69618      0.89889      0.14695  1.0000
  O2          0.20198      0.90029      0.35311  1.0000
  O2          0.69672      0.79330      0.02036  1.0000
  O2          0.09134      0.29878      0.68567  1.0000
  O2          0.79560      0.09393      0.85212  1.0000
  O2          0.29956      0.20298      0.51870  1.0000
  O2          0.90150      0.69405      0.18810  1.0000
  O2          0.32097      0.64287      0.24980  1.0000
  O2          0.34956      0.67329      0.58246  1.0000
  O2          0.32175      0.67727      0.91726  1.0000
  O2          0.67653      0.35207      0.74920  1.0000
  O2          0.64275      0.31987      0.08420  1.0000
  O2          0.67449      0.32114      0.41586  1.0000
  O2          0.37688      0.32968      0.96996  1.0000
  O2          0.66784      0.04198      0.30407  1.0000
  O2          0.95006      0.62245      0.63625  1.0000
  O2          0.62248      0.66863      0.47001  1.0000
  O2          0.33251      0.95127      0.80359  1.0000
  O2          0.04308      0.36916      0.13701  1.0000
  O2          0.32678      0.37197      0.36172  1.0000
  O2          0.04313      0.66648      0.03052  1.0000
  O2          0.62103      0.95226      0.69442  1.0000
  O2          0.66665      0.62022      0.86275  1.0000
  O2          0.95157      0.32604      0.52829  1.0000
  O2          0.37203      0.04114      0.19570  1.0000
  O2          0.76745      0.30066      0.01168  1.0000
  O2          0.69345      0.46513      0.34330  1.0000
  O2          0.52727      0.22521      0.67736  1.0000
  O2          0.22432      0.69258      0.50987  1.0000
  O2          0.30086      0.53010      0.84510  1.0000
  O2          0.46528      0.76739      0.17733  1.0000
  O2          0.30144      0.76881      0.32233  1.0000
  O2          0.46669      0.69404      0.98948  1.0000
  O2          0.22408      0.52980      0.65514  1.0000
  O2          0.69910      0.22691      0.82138  1.0000
  O2          0.53012      0.30229      0.48831  1.0000
  O2          0.77082      0.46220      0.15695  1.0000
  O2          0.78290      0.53118      0.02957  1.0000
  O2          0.46212      0.24820      0.36037  1.0000
  O2          0.74502      0.21121      0.69311  1.0000
  O2          0.21041      0.46118      0.52711  1.0000
  O2          0.53133      0.74544      0.86186  1.0000
  O2          0.24835      0.78200      0.19442  1.0000
  O2          0.53280      0.78299      0.30534  1.0000
  O2          0.24990      0.46451      0.97122  1.0000
  O2          0.20953      0.74627      0.63745  1.0000
  O2          0.46828      0.21236      0.80564  1.0000
  O2          0.74669      0.53349      0.47121  1.0000
  O2          0.78337      0.24465      0.13743  1.0000
  O2          0.22929      0.31797      0.89772  1.0000
  O2          0.67464      0.90594      0.23156  1.0000
  O2          0.08484      0.76338      0.56357  1.0000
  O2          0.76418      0.67503      0.39734  1.0000
  O2          0.32118      0.08999      0.73239  1.0000
  O2          0.91033      0.22845      0.06359  1.0000
  O2          0.32037      0.23060      0.43420  1.0000
  O2          0.90859      0.67208      0.10351  1.0000
  O2          0.76767      0.08850      0.76667  1.0000
  O2          0.67493      0.76508      0.93532  1.0000
  O2          0.08625      0.31998      0.60104  1.0000
  O2          0.23050      0.90707      0.26834  1.0000
  O2          0.58987      0.55694      0.99009  1.0000
  O2          0.43945      0.02745      0.32389  1.0000
  O2          0.96524      0.40950      0.65630  1.0000
  O2          0.40918      0.44019      0.48968  1.0000
  O2          0.56027      0.96587      0.82252  1.0000
  O2          0.02861      0.58255      0.15815  1.0000
  O2          0.55518      0.58558      0.34192  1.0000
  O2          0.02858      0.43967      0.00932  1.0000
  O2          0.40513      0.96594      0.67664  1.0000
  O2          0.43940      0.40672      0.84297  1.0000
  O2          0.96613      0.55441      0.50820  1.0000
  O2          0.58586      0.02612      0.17616  1.0000
  O2          0.58059      0.16359      0.25000  1.0000
  O2          0.82877      0.41336      0.58216  1.0000
  O2          0.58441      0.41309      0.91638  1.0000
  O2          0.41587      0.82785      0.74924  1.0000
  O2          0.16580      0.57907      0.08376  1.0000
  O2          0.41373      0.58144      0.41590  1.0000
  F           0.45032      0.90226      0.24987  1.0000
  F           0.09013      0.54359      0.58241  1.0000
  F           0.45032      0.54310      0.91658  1.0000
  F           0.54633      0.09162      0.74953  1.0000
  F           0.90438      0.44728      0.08353  1.0000
  F           0.54448      0.45053      0.41578  1.0000
