data_cif

_audit_creation_method             'generated by GULP'

_symmetry_space_group_name_H-M     'P 1'
_symmetry_Int_Tables_number        1
_symmetry_cell_setting             triclinic

_cell_length_a                       12.0049
_cell_length_b                       11.9627
_cell_length_c                       29.4863
_cell_angle_alpha                   89.7757
_cell_angle_beta                    89.8006
_cell_angle_gamma                  120.3732

loop_
_atom_site_label
_atom_site_fract_x
_atom_site_fract_y
_atom_site_fract_z
_atom_site_occupancy
  Si          0.69960      0.37570      0.03389  1.0000
  Si          0.60300      0.31529      0.36746  1.0000
  Si          0.65136      0.27831      0.69938  1.0000
  Si          0.27770      0.60763      0.53431  1.0000
  Si          0.35330      0.65861      0.86756  1.0000
  Si          0.31218      0.69239      0.20237  1.0000
  Si          0.36127      0.69396      0.30329  1.0000
  Si          0.30260      0.61041      0.97082  1.0000
  Si          0.27254      0.65856      0.63489  1.0000
  Si          0.59674      0.27921      0.79987  1.0000
  Si          0.65746      0.36686      0.46803  1.0000
  Si          0.69051      0.31324      0.13368  1.0000
  Si          0.51597      0.39654      0.96897  1.0000
  Si          0.56647      0.10620      0.30225  1.0000
  Si          0.86285      0.45050      0.63415  1.0000
  Si          0.45232      0.57238      0.46974  1.0000
  Si          0.39322      0.87038      0.80198  1.0000
  Si          0.10271      0.52527      0.13710  1.0000
  Si          0.39965      0.52222      0.36818  1.0000
  Si          0.10417      0.58611      0.03622  1.0000
  Si          0.44298      0.86730      0.70042  1.0000
  Si          0.56085      0.45160      0.86498  1.0000
  Si          0.86617      0.40102      0.53257  1.0000
  Si          0.52098      0.10476      0.20042  1.0000
  Si          0.27503      0.37727      0.84922  1.0000
  Si          0.59164      0.89465      0.18847  1.0000
  Si          0.07693      0.68375      0.51900  1.0000
  Si          0.68022      0.59458      0.35303  1.0000
  Si          0.37208      0.07671      0.68568  1.0000
  Si          0.90295      0.30247      0.01801  1.0000
  Si          0.38000      0.29066      0.48348  1.0000
  Si          0.89010      0.59004      0.15155  1.0000
  Si          0.67472      0.07939      0.81541  1.0000
  Si          0.58443      0.68132      0.98339  1.0000
  Si          0.07030      0.37869      0.64894  1.0000
  Si          0.28388      0.89506      0.31582  1.0000
  Ge          0.25210      0.34377      0.94933  1.0000
  Si          0.64321      0.90411      0.28955  1.0000
  Si          0.06524      0.73084      0.61954  1.0000
  Si          0.73022      0.64897      0.45370  1.0000
  Si          0.31465      0.07022      0.78642  1.0000
  Si          0.90230      0.24675      0.11883  1.0000
  Si          0.32241      0.24261      0.38304  1.0000
  Si          0.90148      0.65934      0.05190  1.0000
  Si          0.72292      0.06917      0.71469  1.0000
  Si          0.64048      0.73329      0.88115  1.0000
  Si          0.06693      0.32432      0.54828  1.0000
  Si          0.24120      0.90226      0.21474  1.0000
  Si          0.96503      0.11789      0.96644  1.0000
  Si          0.86094      0.84558      0.30326  1.0000
  Si          0.12575      0.01037      0.63452  1.0000
  Si          0.01117      0.86552      0.46860  1.0000
  Si          0.09771      0.13264      0.79936  1.0000
  Si          0.83613      0.96554      0.13384  1.0000
  Si          0.10454      0.96217      0.36764  1.0000
  Si          0.83315      0.87208      0.03281  1.0000
  Si          0.00142      0.12886      0.69923  1.0000
  Si          0.85773      0.01798      0.86687  1.0000
  Si          0.13094      0.10811      0.53377  1.0000
  Ge          0.95822      0.84187      0.20051  1.0000
  O2          0.90821      0.99062      0.99867  1.0000
  O2          0.98248      0.92214      0.33606  1.0000
  O2          0.04311      0.05003      0.66634  1.0000
  O2          0.05261      0.98677      0.50115  1.0000
  O2          0.97759      0.05845      0.83336  1.0000
  O3          0.92386      0.92809      0.16224  1.0000
  O2          0.32193      0.57063      0.33645  1.0000
  O2          0.39400      0.74170      0.66827  1.0000
  O2          0.23076      0.66453      0.00353  1.0000
  O2          0.63647      0.40383      0.83199  1.0000
  O2          0.56742      0.22722      0.16648  1.0000
  O2          0.74131      0.32621      0.50001  1.0000
  O2          0.58065      0.33253      0.99933  1.0000
  O2          0.73622      0.40125      0.66623  1.0000
  O2          0.64174      0.23195      0.33455  1.0000
  O2          0.40282      0.64786      0.50233  1.0000
  O2          0.22699      0.56962      0.16960  1.0000
  O2          0.31753      0.74531      0.83534  1.0000
  O3          0.11451      0.19789      0.97067  1.0000
  O2          0.76829      0.90588      0.31108  1.0000
  O2          0.06284      0.85565      0.63969  1.0000
  O2          0.85676      0.77473      0.47397  1.0000
  O2          0.18734      0.06840      0.80612  1.0000
  O2          0.89945      0.11995      0.13929  1.0000
  O2          0.19605      0.11710      0.36266  1.0000
  O2          0.90137      0.78529      0.03149  1.0000
  O2          0.84722      0.06658      0.69419  1.0000
  O2          0.76477      0.86198      0.86147  1.0000
  O2          0.06750      0.19853      0.52822  1.0000
  O3          0.12186      0.90675      0.19321  1.0000
  O3          0.91496      0.86883      0.25295  1.0000
  O2          0.11602      0.05310      0.58415  1.0000
  O2          0.90882      0.05893      0.91699  1.0000
  O2          0.04026      0.11159      0.74935  1.0000
  O2          0.83631      0.92701      0.08211  1.0000
  O2          0.05321      0.91974      0.41828  1.0000
  O2          0.90394      0.20892      0.97895  1.0000
  O2          0.77852      0.69174      0.31423  1.0000
  O2          0.27663      0.07980      0.64749  1.0000
  O2          0.07987      0.78300      0.48068  1.0000
  O2          0.18559      0.28699      0.80753  1.0000
  O2          0.68740      0.89094      0.15053  1.0000
  O2          0.18500      0.89272      0.35400  1.0000
  O2          0.68209      0.78049      0.02051  1.0000
  O2          0.07119      0.28142      0.68740  1.0000
  O2          0.77333      0.08393      0.85378  1.0000
  O2          0.28308      0.19168      0.52213  1.0000
  O3          0.88301      0.67806      0.19139  1.0000
  O2          0.30732      0.63489      0.25308  1.0000
  O2          0.33268      0.66238      0.58485  1.0000
  O2          0.30161      0.65825      0.91852  1.0000
  O2          0.65370      0.33671      0.74951  1.0000
  O2          0.63562      0.31507      0.08339  1.0000
  O2          0.65850      0.31224      0.41758  1.0000
  O3          0.36422      0.30567      0.97408  1.0000
  O2          0.65275      0.03708      0.30679  1.0000
  O2          0.93189      0.60716      0.63749  1.0000
  O2          0.60883      0.65955      0.47266  1.0000
  O2          0.30591      0.93863      0.80566  1.0000
  O2          0.03257      0.36837      0.13889  1.0000
  O2          0.31221      0.36536      0.36520  1.0000
  O2          0.03637      0.67406      0.03408  1.0000
  O2          0.59919      0.93581      0.69748  1.0000
  O2          0.64595      0.60899      0.86274  1.0000
  O2          0.93503      0.31393      0.52960  1.0000
  O2          0.36569      0.03567      0.19751  1.0000
  O2          0.76909      0.30260      0.01189  1.0000
  O2          0.67881      0.45993      0.34536  1.0000
  O2          0.50752      0.21039      0.67786  1.0000
  O2          0.21074      0.68355      0.51192  1.0000
  O2          0.27939      0.51550      0.84527  1.0000
  O2          0.45698      0.76009      0.18106  1.0000
  O2          0.28502      0.76176      0.32460  1.0000
  O2          0.45063      0.68094      0.98924  1.0000
  O2          0.20357      0.51392      0.65694  1.0000
  O2          0.67160      0.21192      0.82268  1.0000
  O2          0.51395      0.29110      0.49071  1.0000
  O2          0.75636      0.45420      0.15748  1.0000
  O2          0.77712      0.53323      0.03107  1.0000
  O2          0.44703      0.24152      0.36304  1.0000
  O2          0.72366      0.19508      0.69461  1.0000
  O2          0.19457      0.45109      0.52922  1.0000
  O2          0.50850      0.72370      0.86472  1.0000
  O2          0.24015      0.77512      0.19615  1.0000
  O2          0.51702      0.77688      0.30908  1.0000
  O3          0.22324      0.45708      0.97786  1.0000
  O2          0.19106      0.73274      0.63962  1.0000
  O2          0.44034      0.19827      0.80536  1.0000
  O2          0.73186      0.52338      0.47302  1.0000
  O2          0.77252      0.23996      0.13723  1.0000
  O3          0.19798      0.29520      0.89256  1.0000
  O2          0.66376      0.89957      0.23542  1.0000
  O2          0.07047      0.75256      0.56531  1.0000
  O2          0.75020      0.66853      0.39941  1.0000
  O2          0.29748      0.07127      0.73216  1.0000
  O2          0.90797      0.23314      0.06461  1.0000
  O2          0.30466      0.22094      0.43732  1.0000
  O2          0.89747      0.67372      0.10651  1.0000
  O2          0.74420      0.07463      0.76890  1.0000
  O2          0.65249      0.74269      0.93524  1.0000
  O2          0.06668      0.30500      0.60257  1.0000
  O2          0.21424      0.89657      0.26904  1.0000
  O2          0.56566      0.53980      0.99059  1.0000
  O2          0.42284      0.02266      0.32418  1.0000
  O2          0.94459      0.39170      0.65764  1.0000
  O2          0.39426      0.43008      0.49275  1.0000
  O2          0.53540      0.95178      0.82459  1.0000
  O2          0.01767      0.58024      0.16063  1.0000
  O2          0.54081      0.58005      0.34466  1.0000
  O2          0.02297      0.44742      0.01132  1.0000
  O2          0.38633      0.95143      0.67724  1.0000
  O2          0.41937      0.39899      0.84339  1.0000
  O2          0.95184      0.54364      0.50986  1.0000
  O2          0.57974      0.02080      0.17889  1.0000
  O2          0.57260      0.16024      0.25106  1.0000
  O2          0.81122      0.39849      0.58331  1.0000
  O2          0.56191      0.40177      0.91603  1.0000
  O2          0.38969      0.81449      0.75149  1.0000
  O2          0.15742      0.58316      0.08665  1.0000
  O2          0.40010      0.57426      0.41911  1.0000
  F           0.43820      0.89544      0.25252  1.0000
  F           0.07300      0.53115      0.58440  1.0000
  F           0.39701      0.49278      0.92245  1.0000
  F           0.52190      0.07648      0.75141  1.0000
  F           0.89588      0.45297      0.08614  1.0000
  F           0.52974      0.44272      0.41867  1.0000
