data_cif

_audit_creation_method             'generated by GULP'

_symmetry_space_group_name_H-M     'P 1'
_symmetry_Int_Tables_number        1
_symmetry_cell_setting             triclinic

_cell_length_a                       12.0065
_cell_length_b                       11.9648
_cell_length_c                       29.4813
_cell_angle_alpha                   89.6229
_cell_angle_beta                    89.9714
_cell_angle_gamma                  120.3899

loop_
_atom_site_label
_atom_site_fract_x
_atom_site_fract_y
_atom_site_fract_z
_atom_site_occupancy
  Si          0.69960      0.37570      0.03389  1.0000
  Si          0.60601      0.31693      0.36615  1.0000
  Si          0.65152      0.28537      0.69891  1.0000
  Si          0.27842      0.60817      0.53251  1.0000
  Si          0.35652      0.66024      0.86700  1.0000
  Si          0.31154      0.69885      0.20107  1.0000
  Si          0.36524      0.69783      0.30145  1.0000
  Si          0.30451      0.61182      0.97009  1.0000
  Si          0.27642      0.66410      0.63257  1.0000
  Si          0.60134      0.28339      0.79995  1.0000
  Si          0.65941      0.36840      0.46691  1.0000
  Si          0.69355      0.31861      0.13426  1.0000
  Si          0.51652      0.39793      0.96932  1.0000
  Si          0.56986      0.10818      0.30127  1.0000
  Si          0.86327      0.45407      0.63330  1.0000
  Si          0.45335      0.57389      0.46764  1.0000
  Si          0.39738      0.87278      0.80116  1.0000
  Si          0.10226      0.52845      0.13614  1.0000
  Si          0.40248      0.52406      0.36600  1.0000
  Si          0.10493      0.58666      0.03496  1.0000
  Si          0.44147      0.87129      0.69934  1.0000
  Si          0.56385      0.45350      0.86537  1.0000
  Si          0.86725      0.40194      0.53196  1.0000
  Si          0.51855      0.10838      0.19967  1.0000
  Si          0.27828      0.37912      0.84873  1.0000
  Si          0.59063      0.89998      0.18599  1.0000
  Si          0.07715      0.68435      0.51654  1.0000
  Si          0.68296      0.59619      0.35162  1.0000
  Si          0.37204      0.08238      0.68627  1.0000
  Si          0.90226      0.30257      0.01858  1.0000
  Si          0.38186      0.29263      0.48122  1.0000
  Si          0.89268      0.59767      0.14984  1.0000
  Si          0.68001      0.08300      0.81376  1.0000
  Si          0.58621      0.68320      0.98387  1.0000
  Si          0.07339      0.38618      0.64879  1.0000
  Si          0.28835      0.89823      0.31566  1.0000
  Ge          0.25280      0.34489      0.94889  1.0000
  Si          0.64735      0.90742      0.28669  1.0000
  Si          0.06729      0.73292      0.61697  1.0000
  Si          0.73136      0.65037      0.45232  1.0000
  Si          0.31943      0.07375      0.78743  1.0000
  Si          0.90312      0.24842      0.11958  1.0000
  Si          0.32501      0.24428      0.38079  1.0000
  Si          0.90200      0.65958      0.04946  1.0000
  Si          0.72106      0.07460      0.71255  1.0000
  Si          0.64336      0.73496      0.88167  1.0000
  Si          0.06771      0.32493      0.54874  1.0000
  Si          0.23850      0.90697      0.21503  1.0000
  Si          0.96506      0.11951      0.96692  1.0000
  Si          0.86437      0.84527      0.30042  1.0000
  Si          0.12763      0.01158      0.63262  1.0000
  Si          0.01188      0.86751      0.46645  1.0000
  Si          0.10130      0.13201      0.80066  1.0000
  Si          0.83737      0.96647      0.13429  1.0000
  Si          0.10679      0.96379      0.36559  1.0000
  Si          0.83513      0.87322      0.03315  1.0000
  Ge          0.00255      0.13240      0.69868  1.0000
  Si          0.86020      0.01951      0.86726  1.0000
  Si          0.13315      0.10980      0.53182  1.0000
  Si          0.95877      0.84514      0.19968  1.0000
  O2          0.90933      0.99379      0.99988  1.0000
  O2          0.98702      0.92382      0.33251  1.0000
  O3          0.03873      0.04474      0.66217  1.0000
  O2          0.05443      0.98974      0.49859  1.0000
  O2          0.98309      0.06001      0.83565  1.0000
  O2          0.91836      0.92383      0.16585  1.0000
  O2          0.32586      0.57340      0.33406  1.0000
  O2          0.39646      0.74830      0.66632  1.0000
  O2          0.23155      0.66512      0.00243  1.0000
  O2          0.64083      0.40676      0.83268  1.0000
  O2          0.56904      0.23372      0.16671  1.0000
  O2          0.74230      0.32707      0.49929  1.0000
  O2          0.57903      0.33190      0.99992  1.0000
  O2          0.73702      0.40780      0.66542  1.0000
  O2          0.64577      0.23399      0.33354  1.0000
  O2          0.40230      0.64799      0.50006  1.0000
  O2          0.22675      0.57550      0.16867  1.0000
  O2          0.32225      0.74770      0.83452  1.0000
  O3          0.11477      0.19938      0.97020  1.0000
  O2          0.77406      0.90849      0.30658  1.0000
  O2          0.06717      0.85742      0.63752  1.0000
  O2          0.85770      0.77650      0.47261  1.0000
  O2          0.19362      0.07107      0.80872  1.0000
  O2          0.90253      0.12131      0.13958  1.0000
  O2          0.19837      0.11874      0.36050  1.0000
  O2          0.90157      0.78532      0.02890  1.0000
  O3          0.83974      0.06976      0.69050  1.0000
  O2          0.76710      0.86360      0.86177  1.0000
  O2          0.06795      0.19920      0.52857  1.0000
  O2          0.11335      0.90854      0.19502  1.0000
  O2          0.91638      0.85962      0.24965  1.0000
  O2          0.12315      0.05361      0.58156  1.0000
  O2          0.90577      0.05940      0.91793  1.0000
  O3          0.04027      0.10193      0.75151  1.0000
  O2          0.84466      0.92570      0.08348  1.0000
  O2          0.05107      0.92103      0.41582  1.0000
  O2          0.90354      0.20952      0.97959  1.0000
  O2          0.78140      0.69305      0.31293  1.0000
  O2          0.27686      0.08650      0.64828  1.0000
  O2          0.08013      0.78395      0.47816  1.0000
  O2          0.18860      0.28786      0.80707  1.0000
  O2          0.68654      0.89751      0.14774  1.0000
  O2          0.18938      0.89524      0.35393  1.0000
  O2          0.68310      0.78269      0.02135  1.0000
  O3          0.07898      0.29622      0.68850  1.0000
  O2          0.77863      0.08683      0.85199  1.0000
  O2          0.28454      0.19411      0.51969  1.0000
  O2          0.88975      0.69275      0.18845  1.0000
  O2          0.30896      0.64016      0.25138  1.0000
  O2          0.33569      0.66663      0.58255  1.0000
  O2          0.30372      0.65969      0.91773  1.0000
  O2          0.65608      0.34250      0.74946  1.0000
  O2          0.63778      0.31862      0.08389  1.0000
  O2          0.66070      0.31393      0.41651  1.0000
  O3          0.36466      0.30716      0.97405  1.0000
  O2          0.65737      0.03996      0.30476  1.0000
  O2          0.93376      0.61077      0.63552  1.0000
  O2          0.60985      0.66104      0.47099  1.0000
  O2          0.31129      0.94183      0.80586  1.0000
  O2          0.03346      0.37155      0.13899  1.0000
  O2          0.31500      0.36722      0.36287  1.0000
  O2          0.03690      0.67427      0.03203  1.0000
  O2          0.59678      0.94072      0.69642  1.0000
  O2          0.64910      0.61090      0.86337  1.0000
  O2          0.93592      0.31462      0.52968  1.0000
  O2          0.36232      0.04005      0.19675  1.0000
  O2          0.76767      0.30112      0.01215  1.0000
  O2          0.68193      0.46175      0.34421  1.0000
  O2          0.50661      0.21712      0.67826  1.0000
  O2          0.21003      0.68237      0.50969  1.0000
  O2          0.28272      0.51740      0.84447  1.0000
  O2          0.45523      0.76626      0.17883  1.0000
  O2          0.28934      0.76468      0.32372  1.0000
  O2          0.45221      0.68277      0.98897  1.0000
  O2          0.20800      0.52075      0.65518  1.0000
  O2          0.67667      0.21523      0.82178  1.0000
  O2          0.51550      0.29290      0.48915  1.0000
  O2          0.76001      0.46114      0.15735  1.0000
  O2          0.77788      0.53290      0.02899  1.0000
  O2          0.45006      0.24352      0.36118  1.0000
  O2          0.72225      0.20154      0.69319  1.0000
  O2          0.19584      0.45118      0.52947  1.0000
  O2          0.51162      0.72535      0.86487  1.0000
  O2          0.23800      0.78093      0.19576  1.0000
  O2          0.52151      0.78021      0.30655  1.0000
  O3          0.22444      0.45853      0.97719  1.0000
  O2          0.19438      0.73717      0.63672  1.0000
  O2          0.44540      0.20184      0.80609  1.0000
  O2          0.73323      0.52495      0.47185  1.0000
  O2          0.77483      0.24411      0.13854  1.0000
  O3          0.20037      0.29691      0.89198  1.0000
  O2          0.66481      0.90520      0.23245  1.0000
  O2          0.07097      0.75330      0.56270  1.0000
  O2          0.75218      0.67016      0.39807  1.0000
  O2          0.29926      0.07707      0.73322  1.0000
  O2          0.90686      0.23314      0.06538  1.0000
  O2          0.30693      0.22246      0.43505  1.0000
  O2          0.89686      0.67445      0.10376  1.0000
  O2          0.74945      0.08203      0.76674  1.0000
  O2          0.65523      0.74454      0.93582  1.0000
  O2          0.06625      0.30577      0.60334  1.0000
  O2          0.21867      0.90343      0.26934  1.0000
  O2          0.56644      0.54118      0.99107  1.0000
  O2          0.42808      0.02419      0.32448  1.0000
  O2          0.94642      0.39744      0.65733  1.0000
  O2          0.39501      0.43146      0.49049  1.0000
  O2          0.54138      0.95382      0.82250  1.0000
  O2          0.01873      0.58574      0.15908  1.0000
  O2          0.54389      0.58207      0.34284  1.0000
  O2          0.02286      0.44682      0.01102  1.0000
  O2          0.38392      0.95608      0.67730  1.0000
  O2          0.42284      0.40131      0.84321  1.0000
  O2          0.95217      0.54358      0.50833  1.0000
  O2          0.57618      0.02496      0.17695  1.0000
  O2          0.57134      0.16196      0.25036  1.0000
  O2          0.81187      0.40036      0.58254  1.0000
  O2          0.56346      0.40329      0.91652  1.0000
  O2          0.38932      0.81675      0.75039  1.0000
  O2          0.15750      0.58475      0.08562  1.0000
  O2          0.40206      0.57610      0.41683  1.0000
  F           0.43936      0.89946      0.25128  1.0000
  F           0.07382      0.53156      0.58336  1.0000
  F           0.39875      0.49454      0.92218  1.0000
  F           0.52397      0.08106      0.75082  1.0000
  F           0.89593      0.45279      0.08530  1.0000
  F           0.53154      0.44452      0.41701  1.0000
