data_cif

_audit_creation_method             'generated by GULP'

_symmetry_space_group_name_H-M     'P 1'
_symmetry_Int_Tables_number        1
_symmetry_cell_setting             triclinic

_cell_length_a                       12.0013
_cell_length_b                       11.9667
_cell_length_c                       29.4985
_cell_angle_alpha                   89.7648
_cell_angle_beta                    89.7855
_cell_angle_gamma                  120.3791

loop_
_atom_site_label
_atom_site_fract_x
_atom_site_fract_y
_atom_site_fract_z
_atom_site_occupancy
  Si          0.69960      0.37570      0.03389  1.0000
  Si          0.60773      0.31933      0.36717  1.0000
  Si          0.65469      0.28329      0.69898  1.0000
  Si          0.28106      0.61260      0.53394  1.0000
  Si          0.35786      0.66328      0.86716  1.0000
  Si          0.31069      0.69941      0.20334  1.0000
  Si          0.36875      0.70113      0.30319  1.0000
  Si          0.30607      0.61362      0.97024  1.0000
  Si          0.27598      0.66365      0.63441  1.0000
  Si          0.60006      0.28401      0.79950  1.0000
  Si          0.66090      0.37067      0.46784  1.0000
  Si          0.69119      0.32273      0.13468  1.0000
  Si          0.51872      0.39943      0.96889  1.0000
  Si          0.57326      0.11178      0.30185  1.0000
  Si          0.86629      0.45548      0.63373  1.0000
  Si          0.45573      0.57654      0.46974  1.0000
  Si          0.39639      0.87454      0.80143  1.0000
  Si          0.10334      0.53504      0.13701  1.0000
  Si          0.40466      0.52718      0.36819  1.0000
  Si          0.10615      0.58700      0.03563  1.0000
  Si          0.44642      0.87225      0.69988  1.0000
  Si          0.56499      0.45619      0.86501  1.0000
  Si          0.87001      0.40605      0.53221  1.0000
  Si          0.51967      0.11215      0.20051  1.0000
  Si          0.27927      0.38180      0.84880  1.0000
  Si          0.58820      0.90118      0.18628  1.0000
  Si          0.08049      0.68893      0.51839  1.0000
  Si          0.68500      0.59897      0.35353  1.0000
  Si          0.37543      0.08151      0.68521  1.0000
  Si          0.90277      0.30134      0.02009  1.0000
  Si          0.38364      0.29495      0.48314  1.0000
  Si          0.89144      0.60197      0.14932  1.0000
  Si          0.67773      0.08386      0.81463  1.0000
  Si          0.58752      0.68432      0.98369  1.0000
  Si          0.07392      0.38379      0.64849  1.0000
  Si          0.29231      0.90236      0.31794  1.0000
  Ge          0.25513      0.34725      0.94881  1.0000
  Si          0.65076      0.91108      0.28637  1.0000
  Si          0.06861      0.73577      0.61895  1.0000
  Si          0.73379      0.65289      0.45410  1.0000
  Si          0.31802      0.07454      0.78594  1.0000
  Si          0.90292      0.25521      0.12158  1.0000
  Si          0.32691      0.24741      0.38267  1.0000
  Si          0.90209      0.65950      0.04867  1.0000
  Si          0.72642      0.07422      0.71403  1.0000
  Si          0.64484      0.73785      0.88148  1.0000
  Si          0.07071      0.32925      0.54790  1.0000
  Si          0.24110      0.90930      0.21759  1.0000
  Si          0.96777      0.12153      0.96597  1.0000
  Si          0.86676      0.84775      0.30204  1.0000
  Si          0.12909      0.01514      0.63402  1.0000
  Si          0.01413      0.87031      0.46817  1.0000
  Si          0.10139      0.13740      0.79881  1.0000
  Ge          0.83908      0.97065      0.13455  1.0000
  Si          0.10889      0.96701      0.36740  1.0000
  Si          0.83862      0.87420      0.03105  1.0000
  Si          0.00515      0.13402      0.69871  1.0000
  Si          0.86130      0.02331      0.86626  1.0000
  Si          0.13435      0.11280      0.53332  1.0000
  Si          0.96207      0.84764      0.20131  1.0000
  O2          0.91043      0.99031      0.99575  1.0000
  O2          0.98929      0.92659      0.33422  1.0000
  O2          0.04661      0.05502      0.66583  1.0000
  O2          0.05629      0.99195      0.50052  1.0000
  O2          0.98056      0.06263      0.83251  1.0000
  O3          0.93037      0.93205      0.16834  1.0000
  O2          0.32953      0.57794      0.33627  1.0000
  O2          0.39747      0.74673      0.66775  1.0000
  O2          0.23229      0.66560      0.00286  1.0000
  O2          0.64018      0.40827      0.83184  1.0000
  O2          0.56721      0.23707      0.16748  1.0000
  O2          0.74507      0.33037      0.49977  1.0000
  O2          0.58041      0.33234      0.99932  1.0000
  O2          0.73967      0.40631      0.66586  1.0000
  O2          0.64853      0.23771      0.33416  1.0000
  O2          0.40637      0.65248      0.50210  1.0000
  O2          0.22516      0.57799      0.17038  1.0000
  O2          0.32164      0.74948      0.83486  1.0000
  O3          0.11722      0.20238      0.97045  1.0000
  O2          0.77719      0.91240      0.30660  1.0000
  O2          0.06612      0.86045      0.63915  1.0000
  O2          0.86004      0.77863      0.47450  1.0000
  O2          0.19065      0.07275      0.80561  1.0000
  O3          0.90451      0.13382      0.14352  1.0000
  O2          0.19994      0.12203      0.36246  1.0000
  O2          0.90270      0.78395      0.02674  1.0000
  O2          0.85091      0.07181      0.69360  1.0000
  O2          0.76936      0.86686      0.86209  1.0000
  O2          0.07120      0.20348      0.52783  1.0000
  O2          0.11615      0.90879      0.19748  1.0000
  O2          0.91811      0.85861      0.25150  1.0000
  O2          0.11912      0.05755      0.58365  1.0000
  O2          0.91375      0.06946      0.91580  1.0000
  O2          0.04435      0.11702      0.74878  1.0000
  O3          0.85632      0.93360      0.08012  1.0000
  O2          0.05233      0.92375      0.41752  1.0000
  O2          0.90373      0.20763      0.98126  1.0000
  O2          0.78328      0.69612      0.31498  1.0000
  O2          0.28000      0.08461      0.64703  1.0000
  O2          0.08372      0.78835      0.48001  1.0000
  O2          0.18975      0.29163      0.80713  1.0000
  O3          0.67680      0.89345      0.14694  1.0000
  O2          0.19318      0.89967      0.35621  1.0000
  O2          0.68493      0.78362      0.02109  1.0000
  O2          0.07491      0.28656      0.68691  1.0000
  O2          0.77604      0.08791      0.85290  1.0000
  O2          0.28652      0.19592      0.52172  1.0000
  O2          0.88776      0.69621      0.18799  1.0000
  O2          0.30890      0.64142      0.25363  1.0000
  O2          0.33620      0.66752      0.58440  1.0000
  O2          0.30605      0.66283      0.91811  1.0000
  O2          0.65691      0.34149      0.74913  1.0000
  O2          0.63637      0.32056      0.08398  1.0000
  O2          0.66218      0.31608      0.41744  1.0000
  O3          0.36674      0.30887      0.97363  1.0000
  O2          0.66084      0.04355      0.30479  1.0000
  O2          0.93531      0.61210      0.63697  1.0000
  O2          0.61225      0.66352      0.47284  1.0000
  O2          0.30910      0.94284      0.80516  1.0000
  O2          0.03376      0.37905      0.13979  1.0000
  O2          0.31701      0.37040      0.36484  1.0000
  O2          0.03713      0.67337      0.03187  1.0000
  O2          0.60269      0.94083      0.69686  1.0000
  O2          0.65027      0.61359      0.86298  1.0000
  O2          0.93884      0.31897      0.52927  1.0000
  O2          0.36338      0.04256      0.19869  1.0000
  O2          0.76867      0.30086      0.01308  1.0000
  O2          0.68353      0.46449      0.34560  1.0000
  O2          0.51082      0.21536      0.67748  1.0000
  O2          0.21432      0.68860      0.51142  1.0000
  O2          0.28406      0.52020      0.84489  1.0000
  O2          0.45342      0.76626      0.18081  1.0000
  O2          0.29472      0.76961      0.32586  1.0000
  O2          0.45351      0.68385      0.98931  1.0000
  O2          0.20708      0.51907      0.65649  1.0000
  O2          0.67479      0.21637      0.82210  1.0000
  O2          0.51731      0.29486      0.49049  1.0000
  O2          0.75782      0.46620      0.15699  1.0000
  O2          0.77798      0.53250      0.02853  1.0000
  O2          0.45162      0.24620      0.36265  1.0000
  O2          0.72705      0.20016      0.69408  1.0000
  O2          0.19823      0.45611      0.52881  1.0000
  O2          0.51319      0.72858      0.86470  1.0000
  O2          0.23828      0.78212      0.19856  1.0000
  O2          0.52543      0.78308      0.30628  1.0000
  O3          0.22584      0.46042      0.97709  1.0000
  O2          0.19447      0.73780      0.63907  1.0000
  O2          0.44360      0.20265      0.80491  1.0000
  O2          0.73512      0.52705      0.47321  1.0000
  O2          0.77322      0.24979      0.13982  1.0000
  O3          0.20186      0.29937      0.89204  1.0000
  O2          0.66867      0.91028      0.23189  1.0000
  O2          0.07389      0.75751      0.56473  1.0000
  O2          0.75470      0.67272      0.39989  1.0000
  O2          0.30076      0.07571      0.73171  1.0000
  O2          0.90404      0.23227      0.06739  1.0000
  O2          0.30867      0.22545      0.43692  1.0000
  O2          0.89498      0.67725      0.10288  1.0000
  O2          0.74758      0.07945      0.76820  1.0000
  O2          0.65591      0.74618      0.93561  1.0000
  O2          0.07049      0.31010      0.60217  1.0000
  O2          0.22217      0.90709      0.27188  1.0000
  O2          0.56822      0.54247      0.99080  1.0000
  O2          0.43238      0.02843      0.32588  1.0000
  O2          0.94811      0.39673      0.65718  1.0000
  O2          0.39754      0.43410      0.49262  1.0000
  O2          0.53861      0.95611      0.82391  1.0000
  O2          0.01887      0.59284      0.15885  1.0000
  O2          0.54618      0.58552      0.34503  1.0000
  O2          0.02496      0.44506      0.01304  1.0000
  O2          0.38977      0.95636      0.67672  1.0000
  O2          0.42373      0.40363      0.84320  1.0000
  O2          0.95550      0.54862      0.50939  1.0000
  O2          0.57521      0.02727      0.17733  1.0000
  O2          0.57411      0.16572      0.25106  1.0000
  O2          0.81486      0.40356      0.58291  1.0000
  O2          0.56570      0.40580      0.91601  1.0000
  O2          0.39290      0.81904      0.75090  1.0000
  O2          0.15982      0.59002      0.08646  1.0000
  O2          0.40385      0.57849      0.41909  1.0000
  F           0.44305      0.90306      0.25239  1.0000
  F           0.07673      0.53622      0.58392  1.0000
  F           0.40089      0.49691      0.92222  1.0000
  F           0.52519      0.08099      0.75084  1.0000
  F           0.89573      0.45568      0.08586  1.0000
  F           0.53337      0.44692      0.41872  1.0000
