data_cif

_audit_creation_method             'generated by GULP'

_symmetry_space_group_name_H-M     'P 1'
_symmetry_Int_Tables_number        1
_symmetry_cell_setting             triclinic

_cell_length_a                       11.9566
_cell_length_b                       11.9799
_cell_length_c                       29.4788
_cell_angle_alpha                   90.1714
_cell_angle_beta                    90.0000
_cell_angle_gamma                  119.9356

loop_
_atom_site_label
_atom_site_fract_x
_atom_site_fract_y
_atom_site_fract_z
_atom_site_occupancy
  Si          0.69960      0.37570      0.03389  1.0000
  Si          0.61921      0.32389      0.36649  1.0000
  Si          0.67525      0.29716      0.69882  1.0000
  Si          0.29380      0.62054      0.53199  1.0000
  Si          0.37875      0.67591      0.86456  1.0000
  Si          0.32407      0.70442      0.19956  1.0000
  Si          0.37839      0.70346      0.30026  1.0000
  Si          0.32424      0.62494      0.96519  1.0000
  Si          0.29564      0.67674      0.63259  1.0000
  Si          0.61997      0.29619      0.79952  1.0000
  Si          0.67358      0.38011      0.46709  1.0000
  Si          0.70315      0.32472      0.13452  1.0000
  Si          0.53614      0.42057      0.96708  1.0000
  Si          0.58276      0.11371      0.30166  1.0000
  Si          0.88464      0.47052      0.63388  1.0000
  Si          0.46647      0.58326      0.46690  1.0000
  Si          0.41593      0.88488      0.79910  1.0000
  Si          0.11519      0.53150      0.13377  1.0000
  Si          0.41444      0.53012      0.36520  1.0000
  Si          0.11590      0.58006      0.03200  1.0000
  Si          0.46937      0.88691      0.69742  1.0000
  Si          0.58401      0.46911      0.86530  1.0000
  Si          0.88354      0.41739      0.53218  1.0000
  Si          0.53135      0.11575      0.19998  1.0000
  Si          0.30194      0.39659      0.85083  1.0000
  Si          0.60206      0.90628      0.18558  1.0000
  Si          0.09218      0.69737      0.51780  1.0000
  Si          0.69527      0.60113      0.35170  1.0000
  Si          0.39720      0.09552      0.68359  1.0000
  Si          0.90218      0.30111      0.01862  1.0000
  Si          0.39514      0.30328      0.48128  1.0000
  Si          0.90565      0.60403      0.14824  1.0000
  Si          0.69610      0.09433      0.81350  1.0000
  Si          0.60141      0.69953      0.98045  1.0000
  Si          0.09446      0.39950      0.64738  1.0000
  Si          0.30198      0.90510      0.31549  1.0000
  Si          0.25849      0.34651      0.95181  1.0000
  Si          0.65981      0.91215      0.28610  1.0000
  Si          0.08601      0.74863      0.61846  1.0000
  Si          0.74563      0.66071      0.45224  1.0000
  Si          0.33930      0.08677      0.78422  1.0000
  Si          0.91270      0.25274      0.11910  1.0000
  Si          0.33769      0.25201      0.38063  1.0000
  Si          0.91231      0.65413      0.04727  1.0000
  Si          0.74798      0.08847      0.71298  1.0000
  Si          0.66028      0.74787      0.87997  1.0000
  Si          0.08525      0.33994      0.54684  1.0000
  Si          0.25282      0.91385      0.21486  1.0000
  Ge          0.97616      0.12584      0.96548  1.0000
  Si          0.87696      0.84820      0.30152  1.0000
  Si          0.14944      0.02898      0.63271  1.0000
  Si          0.02593      0.87839      0.46711  1.0000
  Si          0.12195      0.14972      0.79836  1.0000
  Si          0.85196      0.97472      0.13658  1.0000
  Si          0.12077      0.97166      0.36637  1.0000
  Ge          0.85065      0.87479      0.03360  1.0000
  Si          0.02908      0.15243      0.69757  1.0000
  Si          0.87756      0.02589      0.86250  1.0000
  Si          0.14786      0.12226      0.53197  1.0000
  Si          0.97252      0.85090      0.20072  1.0000
  O1          0.94357      0.00035      0.99956  1.0000
  O2          0.99753      0.92858      0.33451  1.0000
  O2          0.06928      0.07206      0.66457  1.0000
  O2          0.06749      0.00032      0.49954  1.0000
  O2          0.99543      0.06602      0.82803  1.0000
  O2          0.92969      0.93461      0.17107  1.0000
  O2          0.33891      0.57978      0.33257  1.0000
  O2          0.41997      0.76158      0.66485  1.0000
  O2          0.23878      0.66015      0.99881  1.0000
  O2          0.65900      0.41907      0.83246  1.0000
  O2          0.58144      0.24168      0.16789  1.0000
  O2          0.75755      0.34115      0.49991  1.0000
  O2          0.57893      0.34048      0.00027  1.0000
  O2          0.75946      0.42085      0.66651  1.0000
  O2          0.65869      0.23905      0.33423  1.0000
  O2          0.41672      0.65950      0.49917  1.0000
  O2          0.24021      0.58153      0.16663  1.0000
  O2          0.34009      0.75894      0.83119  1.0000
  O3          0.13886      0.22483      0.97395  1.0000
  O2          0.78640      0.91225      0.30597  1.0000
  O2          0.08592      0.87505      0.63842  1.0000
  O2          0.87151      0.78791      0.47211  1.0000
  O2          0.21269      0.08631      0.80432  1.0000
  O2          0.91415      0.12916      0.14065  1.0000
  O2          0.21119      0.12559      0.36066  1.0000
  O3          0.91436      0.77580      0.02512  1.0000
  O2          0.87448      0.08837      0.69311  1.0000
  O2          0.78531      0.87145      0.85842  1.0000
  O2          0.08392      0.21273      0.52697  1.0000
  O2          0.12668      0.91431      0.19476  1.0000
  O2          0.93306      0.85832      0.25178  1.0000
  O2          0.13694      0.06865      0.58218  1.0000
  O3          0.93868      0.06825      0.91125  1.0000
  O2          0.07503      0.14228      0.74731  1.0000
  O3          0.87071      0.93228      0.08784  1.0000
  O2          0.06860      0.93199      0.41690  1.0000
  O3          0.89417      0.20526      0.97898  1.0000
  O2          0.79373      0.69709      0.31347  1.0000
  O2          0.30094      0.09781      0.64517  1.0000
  O2          0.09420      0.79544      0.47948  1.0000
  O2          0.20291      0.29981      0.81266  1.0000
  O2          0.69911      0.90556      0.14719  1.0000
  O2          0.20343      0.90282      0.35391  1.0000
  O3          0.68925      0.79539      0.02009  1.0000
  O2          0.09696      0.30354      0.68561  1.0000
  O2          0.79388      0.09506      0.85189  1.0000
  O2          0.29909      0.20521      0.51960  1.0000
  O2          0.90340      0.70082      0.18642  1.0000
  O2          0.32279      0.64683      0.24976  1.0000
  O2          0.35210      0.67710      0.58221  1.0000
  O2          0.32114      0.67840      0.91458  1.0000
  O2          0.67628      0.35378      0.74932  1.0000
  O2          0.64304      0.32223      0.08449  1.0000
  O2          0.67531      0.32353      0.41687  1.0000
  O2          0.38074      0.33559      0.96934  1.0000
  O2          0.67010      0.04463      0.30467  1.0000
  O2          0.95368      0.62670      0.63701  1.0000
  O2          0.62279      0.67079      0.47025  1.0000
  O2          0.32871      0.95411      0.80240  1.0000
  O2          0.04524      0.37556      0.13726  1.0000
  O2          0.32729      0.37393      0.36208  1.0000
  O2          0.04547      0.66504      0.02974  1.0000
  O2          0.62580      0.95600      0.69441  1.0000
  O2          0.66999      0.62504      0.86181  1.0000
  O2          0.95232      0.32986      0.52883  1.0000
  O2          0.37490      0.04651      0.19668  1.0000
  O2          0.76706      0.29965      0.01226  1.0000
  O2          0.69452      0.46678      0.34415  1.0000
  O2          0.53170      0.22912      0.67651  1.0000
  O2          0.22545      0.69585      0.51000  1.0000
  O2          0.30478      0.53184      0.84281  1.0000
  O2          0.46774      0.77299      0.17746  1.0000
  O2          0.30288      0.77151      0.32257  1.0000
  O2          0.46775      0.70100      0.98682  1.0000
  O2          0.22806      0.53385      0.65493  1.0000
  O2          0.69507      0.22762      0.82162  1.0000
  O2          0.52993      0.30480      0.48908  1.0000
  O2          0.77325      0.46879      0.15627  1.0000
  O2          0.78323      0.53029      0.02857  1.0000
  O2          0.46308      0.25028      0.36131  1.0000
  O2          0.74916      0.21498      0.69370  1.0000
  O2          0.21144      0.46461      0.52706  1.0000
  O2          0.53490      0.74991      0.86078  1.0000
  O2          0.25071      0.78714      0.19501  1.0000
  O2          0.53447      0.78564      0.30538  1.0000
  O2          0.25327      0.47035      0.97051  1.0000
  O2          0.21312      0.75036      0.63777  1.0000
  O2          0.46389      0.21347      0.80407  1.0000
  O2          0.74715      0.53603      0.47202  1.0000
  O2          0.78529      0.25070      0.13830  1.0000
  O2          0.23231      0.32493      0.89753  1.0000
  O2          0.67710      0.91038      0.23182  1.0000
  O2          0.08747      0.76749      0.56419  1.0000
  O2          0.76529      0.67683      0.39798  1.0000
  O2          0.32194      0.08944      0.72996  1.0000
  O2          0.91000      0.22972      0.06462  1.0000
  O2          0.32029      0.23315      0.43489  1.0000
  O2          0.90771      0.67571      0.10155  1.0000
  O2          0.76705      0.09024      0.76726  1.0000
  O2          0.68060      0.77090      0.93445  1.0000
  O2          0.08879      0.32381      0.60110  1.0000
  O2          0.23280      0.91118      0.26912  1.0000
  O2          0.59250      0.56237      0.98961  1.0000
  O2          0.44151      0.02988      0.32468  1.0000
  O2          0.96910      0.41348      0.65669  1.0000
  O2          0.40891      0.44250      0.49008  1.0000
  O2          0.55705      0.96874      0.82230  1.0000
  O2          0.03224      0.59119      0.15614  1.0000
  O2          0.55594      0.58716      0.34239  1.0000
  O2          0.03044      0.43826      0.00947  1.0000
  O2          0.41195      0.97074      0.67440  1.0000
  O2          0.44136      0.40942      0.84293  1.0000
  O2          0.96673      0.55815      0.50900  1.0000
  O2          0.58860      0.03188      0.17678  1.0000
  O2          0.58351      0.16774      0.25099  1.0000
  O2          0.83090      0.41753      0.58307  1.0000
  O2          0.58911      0.41951      0.91624  1.0000
  O2          0.41609      0.83288      0.74809  1.0000
  O2          0.16991      0.58111      0.08284  1.0000
  O2          0.41369      0.58311      0.41601  1.0000
  F           0.45293      0.90643      0.25030  1.0000
  F           0.09262      0.54779      0.58269  1.0000
  F           0.45596      0.55049      0.91599  1.0000
  F           0.54683      0.09419      0.74878  1.0000
  F           0.90577      0.45013      0.08308  1.0000
  F           0.54514      0.45285      0.41639  1.0000
