data_cif

_audit_creation_method             'generated by GULP'

_symmetry_space_group_name_H-M     'P 1'
_symmetry_Int_Tables_number        1
_symmetry_cell_setting             triclinic

_cell_length_a                       11.9217
_cell_length_b                       11.9923
_cell_length_c                       29.4317
_cell_angle_alpha                   89.7338
_cell_angle_beta                    90.7851
_cell_angle_gamma                  119.7962

loop_
_atom_site_label
_atom_site_fract_x
_atom_site_fract_y
_atom_site_fract_z
_atom_site_occupancy
  Ge          0.69960      0.37570      0.03389  1.0000
  Si          0.59695      0.30423      0.36435  1.0000
  Si          0.66092      0.27846      0.69633  1.0000
  Si          0.27629      0.60015      0.53051  1.0000
  Ge          0.37293      0.65322      0.86565  1.0000
  Si          0.29635      0.68534      0.19816  1.0000
  Si          0.35272      0.68119      0.29865  1.0000
  Si          0.30300      0.61589      0.96372  1.0000
  Si          0.28190      0.65647      0.63123  1.0000
  Si          0.60960      0.28057      0.79672  1.0000
  Si          0.65508      0.35980      0.46494  1.0000
  Si          0.66200      0.30100      0.13168  1.0000
  Si          0.52355      0.41070      0.96386  1.0000
  Si          0.55747      0.09235      0.30055  1.0000
  Si          0.87002      0.45066      0.63192  1.0000
  Si          0.44591      0.56186      0.46495  1.0000
  Si          0.40634      0.86540      0.79877  1.0000
  Si          0.08400      0.51155      0.13298  1.0000
  Si          0.39181      0.50777      0.36314  1.0000
  Si          0.09121      0.56971      0.02996  1.0000
  Si          0.45609      0.86812      0.69605  1.0000
  Si          0.57389      0.45852      0.86019  1.0000
  Si          0.86796      0.39873      0.53011  1.0000
  Si          0.50100      0.09234      0.19889  1.0000
  Si          0.28490      0.38286      0.84286  1.0000
  Si          0.57360      0.88540      0.18296  1.0000
  Si          0.07477      0.67784      0.51559  1.0000
  Si          0.67269      0.58045      0.34885  1.0000
  Si          0.38392      0.07700      0.68105  1.0000
  Si          0.88108      0.28411      0.01161  1.0000
  Si          0.37581      0.28174      0.47903  1.0000
  Si          0.86931      0.58379      0.14467  1.0000
  Si          0.68823      0.08027      0.81137  1.0000
  Si          0.58911      0.69542      0.97482  1.0000
  Si          0.08123      0.37893      0.64604  1.0000
  Si          0.27638      0.88273      0.31372  1.0000
  Si          0.24022      0.33425      0.94601  1.0000
  Si          0.63351      0.89062      0.28393  1.0000
  Si          0.07081      0.72832      0.61640  1.0000
  Si          0.72547      0.63982      0.44968  1.0000
  Si          0.33027      0.06884      0.78159  1.0000
  Si          0.87999      0.23267      0.11511  1.0000
  Si          0.31512      0.23029      0.37812  1.0000
  Si          0.89056      0.65614      0.04248  1.0000
  Si          0.73479      0.07145      0.71055  1.0000
  Si          0.65588      0.74273      0.87239  1.0000
  Si          0.06968      0.32046      0.54514  1.0000
  Si          0.22233      0.89155      0.21295  1.0000
  Si          0.96537      0.11409      0.96299  1.0000
  Si          0.85137      0.82726      0.29817  1.0000
  Si          0.13338      0.00763      0.63016  1.0000
  Si          0.00553      0.85804      0.46456  1.0000
  Si          0.11164      0.12822      0.79514  1.0000
  Si          0.82009      0.95510      0.13133  1.0000
  Si          0.09699      0.95052      0.36368  1.0000
  Si          0.83640      0.87666      0.02934  1.0000
  Si          0.01303      0.12953      0.69500  1.0000
  Si          0.87494      0.01650      0.86203  1.0000
  Si          0.12941      0.10126      0.52941  1.0000
  Si          0.94149      0.83101      0.19665  1.0000
  O2          0.92326      0.00083      0.99935  1.0000
  O2          0.97589      0.90780      0.32990  1.0000
  O2          0.05343      0.05145      0.66137  1.0000
  O2          0.04821      0.98140      0.49606  1.0000
  O2          0.99711      0.06038      0.83055  1.0000
  O2          0.90182      0.91333      0.16384  1.0000
  O2          0.31438      0.55758      0.33061  1.0000
  O2          0.40624      0.74208      0.66370  1.0000
  O2          0.22208      0.64538      0.00135  1.0000
  O2          0.64749      0.40409      0.82927  1.0000
  O2          0.55041      0.22029      0.16826  1.0000
  O2          0.74075      0.32168      0.49771  1.0000
  O3          0.56612      0.33610      0.99688  1.0000
  O2          0.74518      0.40214      0.66397  1.0000
  O2          0.63526      0.21776      0.33262  1.0000
  O2          0.39814      0.63837      0.49734  1.0000
  O2          0.20872      0.56065      0.16599  1.0000
  O3          0.33016      0.74660      0.83048  1.0000
  O2          0.11929      0.20722      0.96768  1.0000
  O2          0.76052      0.89057      0.30417  1.0000
  O2          0.07072      0.85420      0.63634  1.0000
  O2          0.85126      0.76675      0.46979  1.0000
  O2          0.20151      0.06423      0.80152  1.0000
  O2          0.88053      0.10859      0.13679  1.0000
  O2          0.18778      0.10407      0.35814  1.0000
  O2          0.90913      0.79417      0.02702  1.0000
  O2          0.85902      0.06938      0.68959  1.0000
  O2          0.79292      0.86269      0.85660  1.0000
  O2          0.06693      0.19329      0.52491  1.0000
  O2          0.09582      0.89271      0.19249  1.0000
  O2          0.89968      0.84027      0.24703  1.0000
  O2          0.11816      0.04462      0.57917  1.0000
  O2          0.92490      0.05398      0.91345  1.0000
  O2          0.05106      0.10839      0.74519  1.0000
  O2          0.83276      0.92029      0.08029  1.0000
  O2          0.04286      0.90974      0.41375  1.0000
  O2          0.89552      0.19605      0.97356  1.0000
  O2          0.77024      0.67642      0.31037  1.0000
  O2          0.28545      0.07747      0.64228  1.0000
  O2          0.07576      0.77645      0.47714  1.0000
  O2          0.19607      0.27970      0.80461  1.0000
  O2          0.66890      0.88430      0.14414  1.0000
  O2          0.17994      0.88131      0.35230  1.0000
  O2          0.68789      0.79346      0.01310  1.0000
  O2          0.08385      0.28180      0.68425  1.0000
  O2          0.78901      0.08242      0.84983  1.0000
  O2          0.28086      0.18360      0.51721  1.0000
  O2          0.87116      0.68051      0.18331  1.0000
  O2          0.29694      0.62572      0.24784  1.0000
  O2          0.33702      0.65699      0.58066  1.0000
  O3          0.29382      0.67036      0.91572  1.0000
  O2          0.66334      0.33842      0.74632  1.0000
  O3          0.60152      0.29667      0.08305  1.0000
  O2          0.65575      0.30407      0.41455  1.0000
  O2          0.36621      0.32976      0.96285  1.0000
  O2          0.64490      0.02296      0.30238  1.0000
  O2          0.93901      0.60649      0.63460  1.0000
  O2          0.60253      0.64934      0.46741  1.0000
  O2          0.32104      0.93797      0.79933  1.0000
  O2          0.01148      0.35617      0.13372  1.0000
  O2          0.30417      0.35213      0.35933  1.0000
  O2          0.02229      0.65686      0.02747  1.0000
  O2          0.61250      0.93937      0.69200  1.0000
  O2          0.66008      0.61386      0.85761  1.0000
  O2          0.93656      0.31108      0.52657  1.0000
  O2          0.34431      0.02298      0.19450  1.0000
  O3          0.74942      0.28093      0.00178  1.0000
  O2          0.67151      0.44600      0.34112  1.0000
  O2          0.51777      0.21015      0.67268  1.0000
  O2          0.20804      0.67586      0.50775  1.0000
  O3          0.27890      0.50902      0.83305  1.0000
  O2          0.43780      0.75312      0.17463  1.0000
  O2          0.27676      0.74889      0.32039  1.0000
  O2          0.45341      0.69260      0.98248  1.0000
  O2          0.21509      0.51322      0.65321  1.0000
  O2          0.68838      0.21460      0.81883  1.0000
  O2          0.51148      0.28377      0.48651  1.0000
  O2          0.73628      0.44974      0.15077  1.0000
  O3          0.76532      0.54420      0.01965  1.0000
  O2          0.44023      0.22852      0.35862  1.0000
  O2          0.73784      0.19897      0.69105  1.0000
  O2          0.19593      0.44446      0.52534  1.0000
  O3          0.54100      0.75225      0.84973  1.0000
  O2          0.21804      0.76381      0.19313  1.0000
  O2          0.50890      0.76515      0.30349  1.0000
  O2          0.23960      0.45953      0.96537  1.0000
  O2          0.19805      0.72880      0.63584  1.0000
  O2          0.45364      0.19721      0.80186  1.0000
  O2          0.72711      0.51521      0.46953  1.0000
  O2          0.75587      0.23747      0.13300  1.0000
  O2          0.22012      0.31865      0.89165  1.0000
  O2          0.64879      0.88786      0.22945  1.0000
  O2          0.07121      0.74769      0.56197  1.0000
  O2          0.74408      0.65560      0.39524  1.0000
  O2          0.31095      0.07471      0.72724  1.0000
  O2          0.88223      0.21982      0.06072  1.0000
  O2          0.29974      0.21200      0.43244  1.0000
  O2          0.87778      0.65651      0.09772  1.0000
  O2          0.75695      0.07440      0.76497  1.0000
  O2          0.65798      0.75947      0.92765  1.0000
  O2          0.07449      0.30407      0.59948  1.0000
  O2          0.20519      0.88957      0.26731  1.0000
  O2          0.56954      0.55465      0.98223  1.0000
  O2          0.41679      0.00595      0.32311  1.0000
  O2          0.95675      0.39483      0.65467  1.0000
  O2          0.39063      0.42103      0.48762  1.0000
  O2          0.54966      0.95763      0.82079  1.0000
  O2          0.99049      0.56104      0.15230  1.0000
  O2          0.53255      0.56667      0.33965  1.0000
  O2          0.00363      0.42948      0.00752  1.0000
  O2          0.39615      0.95060      0.67281  1.0000
  O2          0.43092      0.40596      0.83895  1.0000
  O2          0.94878      0.53912      0.50648  1.0000
  O2          0.56093      0.01203      0.17483  1.0000
  O2          0.55396      0.14434      0.24981  1.0000
  O2          0.81595      0.39824      0.58084  1.0000
  O2          0.57282      0.41448      0.91225  1.0000
  O2          0.40918      0.81750      0.74700  1.0000
  O2          0.13179      0.56226      0.08219  1.0000
  O2          0.39124      0.56051      0.41383  1.0000
  F           0.42323      0.88299      0.24687  1.0000
  F           0.07796      0.52800      0.57949  1.0000
  F           0.42758      0.56419      0.90280  1.0000
  F           0.53898      0.08432      0.74514  1.0000
  F           0.84314      0.42757      0.07121  1.0000
  F           0.52376      0.43093      0.41257  1.0000
