data_cif

_audit_creation_method             'generated by GULP'

_symmetry_space_group_name_H-M     'P 1'
_symmetry_Int_Tables_number        1
_symmetry_cell_setting             triclinic

_cell_length_a                       11.9204
_cell_length_b                       11.9901
_cell_length_c                       29.4264
_cell_angle_alpha                   90.4468
_cell_angle_beta                    89.8939
_cell_angle_gamma                  119.7918

loop_
_atom_site_label
_atom_site_fract_x
_atom_site_fract_y
_atom_site_fract_z
_atom_site_occupancy
  Ge          0.69960      0.37570      0.03389  1.0000
  Ge          0.59058      0.31176      0.36749  1.0000
  Si          0.66591      0.28454      0.69826  1.0000
  Si          0.27538      0.59921      0.52843  1.0000
  Si          0.36625      0.66001      0.86044  1.0000
  Si          0.30140      0.69146      0.19433  1.0000
  Si          0.35181      0.68128      0.29441  1.0000
  Si          0.30809      0.61003      0.96068  1.0000
  Si          0.28896      0.66290      0.62887  1.0000
  Si          0.60874      0.28070      0.79893  1.0000
  Si          0.66056      0.35405      0.46575  1.0000
  Si          0.66943      0.30781      0.13224  1.0000
  Si          0.52052      0.40757      0.96652  1.0000
  Si          0.55667      0.09587      0.30233  1.0000
  Si          0.87785      0.45962      0.63522  1.0000
  Si          0.44349      0.55900      0.46067  1.0000
  Si          0.40586      0.86905      0.79523  1.0000
  Si          0.09215      0.52081      0.12767  1.0000
  Si          0.38963      0.50445      0.35745  1.0000
  Si          0.09289      0.57219      0.02444  1.0000
  Si          0.46212      0.87521      0.69333  1.0000
  Si          0.57145      0.45532      0.86377  1.0000
  Si          0.86922      0.40101      0.53365  1.0000
  Si          0.50735      0.09988      0.19976  1.0000
  Si          0.29046      0.38307      0.84716  1.0000
  Si          0.57939      0.89227      0.18137  1.0000
  Si          0.07459      0.67853      0.51572  1.0000
  Si          0.67880      0.58032      0.34253  1.0000
  Si          0.38976      0.08381      0.68077  1.0000
  Si          0.88093      0.28505      0.00930  1.0000
  Si          0.37422      0.27500      0.47474  1.0000
  Si          0.87650      0.59206      0.14207  1.0000
  Si          0.68647      0.07897      0.81120  1.0000
  Si          0.58659      0.68890      0.97706  1.0000
  Si          0.08864      0.38707      0.64642  1.0000
  Si          0.27445      0.88117      0.31178  1.0000
  Si          0.24069      0.33080      0.94783  1.0000
  Si          0.63181      0.89294      0.28213  1.0000
  Si          0.07806      0.73569      0.61674  1.0000
  Si          0.72626      0.63612      0.44594  1.0000
  Si          0.32882      0.07130      0.78145  1.0000
  Si          0.88710      0.24012      0.11269  1.0000
  Si          0.30724      0.22081      0.37215  1.0000
  Si          0.89117      0.65673      0.03956  1.0000
  Si          0.73980      0.07692      0.71030  1.0000
  Si          0.64746      0.73380      0.87628  1.0000
  Si          0.07010      0.32092      0.54571  1.0000
  Si          0.22760      0.89726      0.21116  1.0000
  Si          0.96288      0.11166      0.96128  1.0000
  Si          0.85074      0.83293      0.29498  1.0000
  Si          0.14178      0.01610      0.62993  1.0000
  Si          0.00329      0.85546      0.46405  1.0000
  Si          0.11103      0.13387      0.79622  1.0000
  Si          0.82851      0.96379      0.12960  1.0000
  Si          0.08945      0.94486      0.36233  1.0000
  Si          0.83450      0.87530      0.02799  1.0000
  Si          0.02089      0.13947      0.69532  1.0000
  Si          0.86736      0.01083      0.86118  1.0000
  Si          0.12821      0.10011      0.52864  1.0000
  Si          0.94969      0.84134      0.19425  1.0000
  O2          0.91603      0.99676      0.99651  1.0000
  O2          0.96613      0.90028      0.33069  1.0000
  O2          0.06185      0.06101      0.66134  1.0000
  O2          0.04226      0.97686      0.49694  1.0000
  O2          0.98735      0.05278      0.82763  1.0000
  O2          0.91076      0.92371      0.16190  1.0000
  O2          0.31453      0.55591      0.32569  1.0000
  O2          0.41517      0.75090      0.65995  1.0000
  O2          0.21950      0.64706      0.99279  1.0000
  O2          0.64752      0.40234      0.83229  1.0000
  O2          0.56044      0.22977      0.17025  1.0000
  O2          0.73806      0.32350      0.50416  1.0000
  O3          0.56295      0.33263      0.99900  1.0000
  O2          0.75358      0.41188      0.66803  1.0000
  O3          0.63311      0.21396      0.33468  1.0000
  O2          0.39467      0.63435      0.49356  1.0000
  O2          0.21693      0.57037      0.16016  1.0000
  O2          0.32843      0.74315      0.82662  1.0000
  O2          0.11630      0.20286      0.96776  1.0000
  O2          0.75994      0.89549      0.30216  1.0000
  O2          0.08001      0.86303      0.63669  1.0000
  O2          0.84859      0.76263      0.46765  1.0000
  O2          0.20114      0.06941      0.80154  1.0000
  O2          0.89001      0.11767      0.13430  1.0000
  O2          0.17079      0.09859      0.35643  1.0000
  O2          0.90724      0.79301      0.02359  1.0000
  O2          0.86682      0.07841      0.68961  1.0000
  O2          0.77573      0.85728      0.85606  1.0000
  O2          0.06513      0.19179      0.52578  1.0000
  O2          0.10395      0.90209      0.19043  1.0000
  O2          0.90872      0.85425      0.24485  1.0000
  O2          0.12647      0.04994      0.57873  1.0000
  O2          0.92480      0.05115      0.91136  1.0000
  O2          0.05995      0.12210      0.74533  1.0000
  O2          0.84063      0.92501      0.07887  1.0000
  O2          0.04307      0.90721      0.41366  1.0000
  O2          0.89351      0.19492      0.97095  1.0000
  O2          0.76741      0.68114      0.30409  1.0000
  O2          0.29383      0.08678      0.64199  1.0000
  O2          0.07329      0.77443      0.47725  1.0000
  O2          0.19300      0.28457      0.80871  1.0000
  O2          0.67738      0.89393      0.14260  1.0000
  O2          0.17422      0.87789      0.35008  1.0000
  O2          0.68356      0.79051      0.01499  1.0000
  O2          0.09215      0.29164      0.68454  1.0000
  O2          0.78374      0.07951      0.84985  1.0000
  O2          0.27730      0.18093      0.51331  1.0000
  O2          0.87975      0.69080      0.18077  1.0000
  O2          0.29842      0.62640      0.24330  1.0000
  O2          0.34088      0.66049      0.57759  1.0000
  O2          0.30563      0.66370      0.91002  1.0000
  O2          0.66479      0.33937      0.74885  1.0000
  O3          0.60546      0.30037      0.08443  1.0000
  O3          0.66916      0.29744      0.41803  1.0000
  O2          0.36265      0.32254      0.96644  1.0000
  O2          0.64169      0.02293      0.30145  1.0000
  O2          0.94714      0.61559      0.63663  1.0000
  O2          0.59958      0.64216      0.46220  1.0000
  O2          0.31822      0.93814      0.79826  1.0000
  O2          0.01914      0.36550      0.12952  1.0000
  O2          0.30267      0.34906      0.35635  1.0000
  O2          0.02387      0.65928      0.02378  1.0000
  O2          0.61887      0.94525      0.69056  1.0000
  O2          0.65741      0.61061      0.85866  1.0000
  O2          0.93719      0.31275      0.52845  1.0000
  O2          0.35106      0.02905      0.19391  1.0000
  O3          0.74782      0.27923      0.00115  1.0000
  O3          0.68534      0.45376      0.33438  1.0000
  O2          0.52409      0.21786      0.67418  1.0000
  O2          0.20610      0.67345      0.50614  1.0000
  O2          0.29197      0.51693      0.83764  1.0000
  O2          0.44414      0.76096      0.17119  1.0000
  O2          0.27229      0.74517      0.31720  1.0000
  O2          0.45132      0.68949      0.98337  1.0000
  O2          0.22398      0.52095      0.65154  1.0000
  O2          0.68424      0.21124      0.81992  1.0000
  O2          0.50994      0.27973      0.48337  1.0000
  O2          0.74539      0.45771      0.15053  1.0000
  O3          0.76629      0.54278      0.01776  1.0000
  O3          0.42256      0.21113      0.35048  1.0000
  O2          0.74226      0.20462      0.69185  1.0000
  O2          0.19651      0.44306      0.52458  1.0000
  O2          0.52311      0.73626      0.85580  1.0000
  O2          0.22247      0.76946      0.19035  1.0000
  O2          0.50767      0.76377      0.30079  1.0000
  O2          0.23488      0.45492      0.96684  1.0000
  O2          0.20576      0.73585      0.63463  1.0000
  O2          0.45251      0.19616      0.80261  1.0000
  O2          0.72321      0.51053      0.46598  1.0000
  O2          0.76345      0.24438      0.13223  1.0000
  O2          0.21834      0.31152      0.89346  1.0000
  O2          0.65065      0.88988      0.22772  1.0000
  O2          0.07538      0.75137      0.56229  1.0000
  O2          0.74210      0.64836      0.39151  1.0000
  O2          0.31313      0.07712      0.72703  1.0000
  O2          0.88603      0.22365      0.05828  1.0000
  O2          0.30520      0.20814      0.42750  1.0000
  O2          0.87917      0.66021      0.09493  1.0000
  O2          0.75826      0.07661      0.76466  1.0000
  O2          0.66320      0.75565      0.93063  1.0000
  O2          0.07716      0.30820      0.60004  1.0000
  O2          0.20660      0.89191      0.26554  1.0000
  O2          0.56971      0.55066      0.98768  1.0000
  O2          0.41375      0.00112      0.32330  1.0000
  O2          0.96664      0.40624      0.65710  1.0000
  O2          0.39242      0.41679      0.48033  1.0000
  O2          0.54696      0.95352      0.81859  1.0000
  O2          0.00010      0.57261      0.14746  1.0000
  O2          0.53206      0.55524      0.33686  1.0000
  O2          0.00214      0.43045      0.00351  1.0000
  O2          0.40380      0.95875      0.67059  1.0000
  O2          0.43015      0.39513      0.83989  1.0000
  O2          0.94714      0.53965      0.50871  1.0000
  O2          0.56868      0.02027      0.17534  1.0000
  O2          0.55222      0.14617      0.25130  1.0000
  O2          0.82136      0.40330      0.58496  1.0000
  O2          0.57398      0.40999      0.91503  1.0000
  O2          0.40807      0.81954      0.74371  1.0000
  O2          0.13808      0.56757      0.07618  1.0000
  O2          0.39403      0.55519      0.40922  1.0000
  F           0.42189      0.87933      0.24528  1.0000
  F           0.08289      0.53187      0.57953  1.0000
  F           0.43572      0.53947      0.91095  1.0000
  F           0.53809      0.08143      0.74474  1.0000
  F           0.84577      0.43038      0.06951  1.0000
  F           0.53489      0.40316      0.40272  1.0000
