data_cif

_audit_creation_method             'generated by GULP'

_symmetry_space_group_name_H-M     'P 1'
_symmetry_Int_Tables_number        1
_symmetry_cell_setting             triclinic

_cell_length_a                       11.9349
_cell_length_b                       11.9902
_cell_length_c                       29.4417
_cell_angle_alpha                   89.7306
_cell_angle_beta                    90.5606
_cell_angle_gamma                  119.9043

loop_
_atom_site_label
_atom_site_fract_x
_atom_site_fract_y
_atom_site_fract_z
_atom_site_occupancy
  Ge          0.69960      0.37570      0.03389  1.0000
  Si          0.60431      0.30169      0.36562  1.0000
  Si          0.66691      0.27586      0.69564  1.0000
  Si          0.28111      0.59896      0.52947  1.0000
  Si          0.37292      0.65660      0.86223  1.0000
  Si          0.30773      0.69094      0.19664  1.0000
  Si          0.36017      0.68017      0.29711  1.0000
  Si          0.31354      0.60823      0.96435  1.0000
  Si          0.28652      0.65509      0.63013  1.0000
  Si          0.61457      0.27730      0.79640  1.0000
  Si          0.65870      0.35916      0.46606  1.0000
  Si          0.67507      0.30842      0.13300  1.0000
  Ge          0.52539      0.42126      0.96440  1.0000
  Si          0.56639      0.08973      0.30253  1.0000
  Si          0.87705      0.45064      0.63203  1.0000
  Si          0.45056      0.56048      0.46376  1.0000
  Si          0.41176      0.86655      0.79608  1.0000
  Si          0.09777      0.52207      0.12926  1.0000
  Si          0.39821      0.50643      0.36192  1.0000
  Si          0.09628      0.57289      0.02607  1.0000
  Si          0.46119      0.86564      0.69462  1.0000
  Si          0.58757      0.44891      0.86448  1.0000
  Si          0.87153      0.39709      0.53048  1.0000
  Si          0.51564      0.09971      0.20095  1.0000
  Si          0.29977      0.37628      0.84933  1.0000
  Si          0.58694      0.89196      0.18362  1.0000
  Si          0.07939      0.67682      0.51569  1.0000
  Si          0.68005      0.57798      0.34922  1.0000
  Si          0.38869      0.07417      0.68086  1.0000
  Si          0.88240      0.28575      0.01125  1.0000
  Si          0.37948      0.28086      0.47927  1.0000
  Si          0.88194      0.59271      0.14214  1.0000
  Si          0.69182      0.07521      0.81099  1.0000
  Si          0.59744      0.69394      0.98413  1.0000
  Si          0.08628      0.37793      0.64592  1.0000
  Si          0.28471      0.88110      0.31450  1.0000
  Si          0.24489      0.32271      0.95162  1.0000
  Si          0.64222      0.88891      0.28448  1.0000
  Si          0.07700      0.72845      0.61650  1.0000
  Si          0.73045      0.63884      0.44992  1.0000
  Si          0.33294      0.06693      0.78160  1.0000
  Si          0.89225      0.24096      0.11464  1.0000
  Si          0.32205      0.22878      0.37838  1.0000
  Si          0.89560      0.65776      0.03931  1.0000
  Si          0.73999      0.06751      0.71028  1.0000
  Si          0.65910      0.72847      0.88115  1.0000
  Si          0.07305      0.31879      0.54511  1.0000
  Si          0.23569      0.89798      0.21391  1.0000
  Si          0.96122      0.11245      0.96375  1.0000
  Si          0.85997      0.82496      0.29881  1.0000
  Si          0.13894      0.00783      0.63121  1.0000
  Si          0.01054      0.85734      0.46512  1.0000
  Si          0.11537      0.12894      0.79820  1.0000
  Si          0.83699      0.96550      0.13356  1.0000
  Si          0.10469      0.94858      0.36426  1.0000
  Si          0.84320      0.88151      0.03229  1.0000
  Si          0.02072      0.13100      0.69685  1.0000
  Si          0.87253      0.00852      0.86349  1.0000
  Si          0.13297      0.10016      0.53030  1.0000
  Si          0.95581      0.83832      0.19734  1.0000
  O2          0.92340      0.00436      0.00137  1.0000
  O2          0.98255      0.90515      0.33131  1.0000
  O2          0.06320      0.05081      0.66505  1.0000
  O2          0.05215      0.97820      0.49794  1.0000
  O2          0.99601      0.05026      0.83173  1.0000
  O2          0.91752      0.92789      0.16822  1.0000
  O2          0.32158      0.55478      0.32863  1.0000
  O2          0.41200      0.74047      0.66222  1.0000
  O2          0.22335      0.64530      0.99426  1.0000
  O2          0.65693      0.40337      0.82717  1.0000
  O2          0.56776      0.22987      0.17172  1.0000
  O2          0.74348      0.32032      0.49895  1.0000
  O1          0.56776      0.33629      0.00066  1.0000
  O2          0.75121      0.40067      0.66400  1.0000
  O2          0.64362      0.21415      0.33519  1.0000
  O2          0.40185      0.63720      0.49587  1.0000
  O2          0.22251      0.57151      0.16225  1.0000
  O2          0.33678      0.74029      0.82839  1.0000
  O2          0.11300      0.20267      0.96959  1.0000
  O2          0.76828      0.88723      0.30456  1.0000
  O2          0.07642      0.85402      0.63660  1.0000
  O2          0.85603      0.76640      0.46990  1.0000
  O2          0.20556      0.06414      0.80192  1.0000
  O2          0.89621      0.11913      0.13701  1.0000
  O2          0.19598      0.10217      0.35815  1.0000
  O2          0.90996      0.79499      0.02449  1.0000
  O2          0.86642      0.06780      0.69034  1.0000
  O2          0.78127      0.85451      0.85925  1.0000
  O2          0.06975      0.19133      0.52501  1.0000
  O2          0.11039      0.90113      0.19371  1.0000
  O2          0.91145      0.83731      0.24831  1.0000
  O2          0.12136      0.04750      0.58094  1.0000
  O2          0.92212      0.04796      0.91447  1.0000
  O2          0.05904      0.11890      0.74803  1.0000
  O2          0.85564      0.92511      0.08413  1.0000
  O2          0.05161      0.91164      0.41481  1.0000
  O2          0.89229      0.19571      0.97249  1.0000
  O2          0.77859      0.67365      0.31089  1.0000
  O2          0.29165      0.07637      0.64223  1.0000
  O2          0.07985      0.77485      0.47735  1.0000
  O2          0.20179      0.27964      0.81074  1.0000
  O2          0.68461      0.89420      0.14510  1.0000
  O2          0.18663      0.87816      0.35308  1.0000
  O2          0.69152      0.80829      0.01920  1.0000
  O2          0.09024      0.28210      0.68436  1.0000
  O2          0.79124      0.07777      0.84946  1.0000
  O2          0.28412      0.18286      0.51776  1.0000
  O2          0.88591      0.69126      0.18045  1.0000
  O2          0.30533      0.62717      0.24600  1.0000
  O2          0.34167      0.65546      0.57962  1.0000
  O2          0.31465      0.65360      0.91201  1.0000
  O2          0.66925      0.33182      0.74594  1.0000
  O3          0.60883      0.30058      0.08601  1.0000
  O2          0.66094      0.30251      0.41617  1.0000
  O3          0.35568      0.30502      0.97205  1.0000
  O2          0.65333      0.02000      0.30436  1.0000
  O2          0.94557      0.60641      0.63534  1.0000
  O2          0.60702      0.64849      0.46717  1.0000
  O2          0.32420      0.93501      0.80011  1.0000
  O2          0.02406      0.36684      0.13169  1.0000
  O2          0.31131      0.35034      0.35928  1.0000
  O2          0.03117      0.66314      0.02518  1.0000
  O2          0.61784      0.93453      0.69202  1.0000
  O2          0.66974      0.60738      0.86284  1.0000
  O2          0.93986      0.30930      0.52711  1.0000
  O2          0.35894      0.03021      0.19655  1.0000
  O3          0.74967      0.27798      0.00283  1.0000
  O2          0.67939      0.44358      0.34237  1.0000
  O2          0.52263      0.20774      0.67343  1.0000
  O2          0.21235      0.67484      0.50769  1.0000
  O2          0.30398      0.51234      0.84181  1.0000
  O2          0.45103      0.76049      0.17436  1.0000
  O2          0.28356      0.74596      0.32000  1.0000
  O2          0.45853      0.69066      0.98469  1.0000
  O2          0.22024      0.51251      0.65285  1.0000
  O2          0.68823      0.20677      0.81884  1.0000
  O2          0.51498      0.28354      0.48783  1.0000
  O2          0.75250      0.45782      0.15176  1.0000
  O3          0.77586      0.54509      0.01560  1.0000
  O2          0.44795      0.22748      0.35961  1.0000
  O2          0.73977      0.19286      0.69031  1.0000
  O2          0.19873      0.44317      0.52504  1.0000
  O2          0.52760      0.72055      0.86275  1.0000
  O2          0.23145      0.77124      0.19323  1.0000
  O2          0.51637      0.76158      0.30289  1.0000
  O2          0.25008      0.45487      0.96882  1.0000
  O2          0.20479      0.72950      0.63548  1.0000
  O2          0.45795      0.19438      0.80093  1.0000
  O2          0.73211      0.51493      0.47071  1.0000
  O2          0.76875      0.24442      0.13375  1.0000
  O2          0.23132      0.31114      0.89638  1.0000
  O2          0.65988      0.89075      0.23010  1.0000
  O2          0.07638      0.74700      0.56213  1.0000
  O2          0.75030      0.65379      0.39559  1.0000
  O2          0.31384      0.06839      0.72722  1.0000
  O2          0.89155      0.22499      0.06034  1.0000
  O2          0.30484      0.21024      0.43275  1.0000
  O2          0.88110      0.65858      0.09466  1.0000
  O2          0.76160      0.07156      0.76461  1.0000
  O2          0.67199      0.74720      0.93536  1.0000
  O2          0.07867      0.30261      0.59947  1.0000
  O2          0.21620      0.89228      0.26829  1.0000
  O3          0.58725      0.56501      0.99978  1.0000
  O2          0.42519      0.00323      0.32513  1.0000
  O2          0.96155      0.39304      0.65524  1.0000
  O2          0.39277      0.41990      0.48726  1.0000
  O2          0.55371      0.94733      0.81950  1.0000
  O2          0.00739      0.57604      0.14780  1.0000
  O2          0.54011      0.56346      0.33955  1.0000
  O2          0.00537      0.43144      0.00528  1.0000
  O2          0.40312      0.94949      0.67153  1.0000
  O2          0.44130      0.39462      0.84359  1.0000
  O2          0.95380      0.53764      0.50699  1.0000
  O2          0.57446      0.01881      0.17670  1.0000
  O2          0.56572      0.14609      0.25247  1.0000
  O2          0.82114      0.39765      0.58143  1.0000
  O3          0.59655      0.39823      0.91282  1.0000
  O2          0.40836      0.81173      0.74541  1.0000
  O2          0.14377      0.56804      0.07768  1.0000
  O2          0.39733      0.55973      0.41259  1.0000
  F           0.43403      0.88433      0.24873  1.0000
  F           0.08222      0.52713      0.58078  1.0000
  F           0.46977      0.51010      0.92512  1.0000
  F           0.53784      0.07078      0.74606  1.0000
  F           0.84673      0.43058      0.07011  1.0000
  F           0.52999      0.42997      0.41418  1.0000
