data_cif

_audit_creation_method             'generated by GULP'

_symmetry_space_group_name_H-M     'P 1'
_symmetry_Int_Tables_number        1
_symmetry_cell_setting             triclinic

_cell_length_a                       11.9743
_cell_length_b                       11.9889
_cell_length_c                       29.4523
_cell_angle_alpha                   89.7328
_cell_angle_beta                    90.5455
_cell_angle_gamma                  120.2533

loop_
_atom_site_label
_atom_site_fract_x
_atom_site_fract_y
_atom_site_fract_z
_atom_site_occupancy
  Ge          0.69960      0.37570      0.03389  1.0000
  Si          0.59972      0.31892      0.36796  1.0000
  Si          0.65951      0.29401      0.69798  1.0000
  Si          0.27321      0.61765      0.52961  1.0000
  Si          0.36384      0.66959      0.86227  1.0000
  Si          0.30003      0.69642      0.19466  1.0000
  Si          0.35643      0.69594      0.29690  1.0000
  Si          0.30912      0.61525      0.96255  1.0000
  Si          0.28110      0.67510      0.63025  1.0000
  Si          0.60624      0.29237      0.79852  1.0000
  Si          0.65296      0.37863      0.46848  1.0000
  Si          0.66351      0.30220      0.13235  1.0000
  Si          0.52174      0.41158      0.96610  1.0000
  Si          0.57082      0.11672      0.30201  1.0000
  Si          0.86975      0.46797      0.63385  1.0000
  Si          0.44442      0.58121      0.46434  1.0000
  Si          0.40139      0.88018      0.79717  1.0000
  Si          0.08740      0.52041      0.12925  1.0000
  Si          0.39524      0.52405      0.36287  1.0000
  Si          0.09407      0.57548      0.02597  1.0000
  Si          0.45402      0.88558      0.69537  1.0000
  Si          0.56929      0.46473      0.86334  1.0000
  Si          0.86552      0.41509      0.53233  1.0000
  Ge          0.50555      0.08889      0.20278  1.0000
  Si          0.28828      0.39279      0.84770  1.0000
  Si          0.58497      0.89801      0.17762  1.0000
  Si          0.07218      0.69501      0.51609  1.0000
  Si          0.67518      0.59538      0.35043  1.0000
  Si          0.38142      0.09344      0.68167  1.0000
  Si          0.88133      0.28748      0.01035  1.0000
  Si          0.37350      0.30098      0.48000  1.0000
  Si          0.87207      0.58951      0.14177  1.0000
  Si          0.68361      0.09098      0.81207  1.0000
  Si          0.58754      0.69301      0.97766  1.0000
  Si          0.08003      0.39669      0.64627  1.0000
  Si          0.28207      0.90126      0.31299  1.0000
  Si          0.24208      0.33651      0.94823  1.0000
  Si          0.64321      0.91118      0.28110  1.0000
  Si          0.07077      0.74665      0.61688  1.0000
  Si          0.72396      0.65858      0.45093  1.0000
  Si          0.32443      0.08207      0.78241  1.0000
  Si          0.88316      0.23855      0.11383  1.0000
  Si          0.31749      0.24603      0.37921  1.0000
  Si          0.89258      0.65841      0.03950  1.0000
  Si          0.73337      0.08693      0.71127  1.0000
  Si          0.64482      0.74308      0.87703  1.0000
  Si          0.06570      0.33641      0.54551  1.0000
  Si          0.22492      0.90764      0.21065  1.0000
  Si          0.96384      0.11722      0.96155  1.0000
  Si          0.85448      0.83932      0.29720  1.0000
  Si          0.13238      0.02605      0.63084  1.0000
  Si          0.00511      0.87554      0.46431  1.0000
  Si          0.10763      0.14432      0.79657  1.0000
  Si          0.82926      0.96117      0.12903  1.0000
  Si          0.09940      0.96498      0.36293  1.0000
  Si          0.83789      0.87777      0.02780  1.0000
  Si          0.01311      0.14802      0.69586  1.0000
  Si          0.86501      0.02173      0.86136  1.0000
  Si          0.12637      0.11839      0.53002  1.0000
  Si          0.93969      0.83358      0.19546  1.0000
  O2          0.91790      0.99923      0.99583  1.0000
  O2          0.98128      0.92315      0.32794  1.0000
  O2          0.05222      0.06902      0.66212  1.0000
  O2          0.04980      0.00046      0.49532  1.0000
  O2          0.98349      0.06284      0.82763  1.0000
  O2          0.90865      0.92227      0.16322  1.0000
  O2          0.32013      0.57353      0.32912  1.0000
  O2          0.40596      0.76105      0.66233  1.0000
  O2          0.22248      0.65109      0.99536  1.0000
  O2          0.64523      0.41471      0.83133  1.0000
  O3          0.55824      0.22857      0.16936  1.0000
  O2          0.73570      0.33864      0.50135  1.0000
  O3          0.56464      0.33497      0.99770  1.0000
  O2          0.74560      0.41977      0.66631  1.0000
  O2          0.64174      0.23061      0.33960  1.0000
  O2          0.39441      0.65712      0.49589  1.0000
  O2          0.21217      0.57223      0.16277  1.0000
  O2          0.32493      0.75405      0.82914  1.0000
  O2          0.11740      0.20775      0.96818  1.0000
  O2          0.76491      0.90394      0.30214  1.0000
  O2          0.07093      0.87223      0.63715  1.0000
  O2          0.85056      0.78673      0.47039  1.0000
  O2          0.19779      0.08046      0.80238  1.0000
  O2          0.88462      0.11422      0.13524  1.0000
  O2          0.19098      0.11957      0.35856  1.0000
  O2          0.90953      0.79544      0.02316  1.0000
  O2          0.85879      0.08662      0.69091  1.0000
  O2          0.77194      0.86782      0.85641  1.0000
  O2          0.06173      0.20813      0.52567  1.0000
  O2          0.09237      0.89411      0.19209  1.0000
  O2          0.89680      0.84235      0.24591  1.0000
  O2          0.11516      0.06061      0.57967  1.0000
  O2          0.92456      0.06103      0.91129  1.0000
  O2          0.05614      0.13231      0.74561  1.0000
  O2          0.84897      0.92898      0.07863  1.0000
  O2          0.04246      0.92241      0.41280  1.0000
  O2          0.89436      0.19853      0.97233  1.0000
  O2          0.77418      0.68991      0.31196  1.0000
  O2          0.28455      0.09690      0.64310  1.0000
  O2          0.07300      0.79290      0.47745  1.0000
  O2          0.18992      0.29554      0.80902  1.0000
  O2          0.67721      0.88106      0.14146  1.0000
  O2          0.18453      0.89823      0.35151  1.0000
  O2          0.68598      0.79295      0.01587  1.0000
  O2          0.08376      0.30042      0.68436  1.0000
  O2          0.78256      0.09174      0.85036  1.0000
  O2          0.27802      0.20432      0.51858  1.0000
  O2          0.86987      0.68408      0.18080  1.0000
  O2          0.30228      0.64609      0.24592  1.0000
  O2          0.33494      0.67541      0.57948  1.0000
  O2          0.30534      0.67103      0.91215  1.0000
  O2          0.66147      0.35081      0.74825  1.0000
  O3          0.60466      0.29593      0.08292  1.0000
  O2          0.65593      0.32321      0.41858  1.0000
  O2          0.36357      0.32688      0.96631  1.0000
  O2          0.65442      0.04197      0.30105  1.0000
  O2          0.93937      0.62444      0.63585  1.0000
  O2          0.60115      0.66988      0.46729  1.0000
  O2          0.31423      0.94901      0.79994  1.0000
  O2          0.01645      0.36475      0.13109  1.0000
  O2          0.30795      0.36771      0.35922  1.0000
  O2          0.02528      0.66204      0.02410  1.0000
  O2          0.61047      0.95490      0.69226  1.0000
  O2          0.65462      0.62103      0.85882  1.0000
  O2          0.93243      0.32662      0.52761  1.0000
  O3          0.33839      0.03824      0.19187  1.0000
  O3          0.74931      0.28204      0.00106  1.0000
  O2          0.67285      0.46020      0.34371  1.0000
  O2          0.51655      0.22746      0.67451  1.0000
  O2          0.20454      0.69285      0.50744  1.0000
  O2          0.28902      0.52692      0.83905  1.0000
  O2          0.44448      0.76516      0.17430  1.0000
  O2          0.28394      0.76743      0.31743  1.0000
  O2          0.45327      0.69358      0.98494  1.0000
  O2          0.21461      0.53164      0.65249  1.0000
  O2          0.68228      0.22381      0.82005  1.0000
  O2          0.50785      0.30294      0.48891  1.0000
  O2          0.74064      0.45538      0.14839  1.0000
  O3          0.76719      0.54434      0.01779  1.0000
  O2          0.44307      0.24279      0.36148  1.0000
  O2          0.73543      0.21433      0.69209  1.0000
  O2          0.19174      0.46107      0.52501  1.0000
  O2          0.52041      0.74667      0.85725  1.0000
  O2          0.23250      0.78327      0.19236  1.0000
  O2          0.51107      0.78780      0.29824  1.0000
  O2          0.23634      0.45938      0.96798  1.0000
  O2          0.19826      0.74765      0.63536  1.0000
  O2          0.44998      0.20781      0.80268  1.0000
  O2          0.72348      0.53466      0.47258  1.0000
  O2          0.76201      0.24369      0.13343  1.0000
  O2          0.21758      0.31869      0.89392  1.0000
  O2          0.65611      0.91059      0.22681  1.0000
  O2          0.07026      0.76571      0.56245  1.0000
  O2          0.74544      0.67194      0.39664  1.0000
  O2          0.30684      0.08673      0.72801  1.0000
  O2          0.88353      0.22384      0.05951  1.0000
  O2          0.29872      0.22907      0.43349  1.0000
  O2          0.88199      0.66289      0.09483  1.0000
  O2          0.75340      0.08796      0.76558  1.0000
  O2          0.66299      0.76324      0.93138  1.0000
  O2          0.07113      0.32070      0.59978  1.0000
  O2          0.21570      0.90644      0.26587  1.0000
  O2          0.57148      0.55441      0.98761  1.0000
  O2          0.42487      0.02120      0.32135  1.0000
  O2          0.95668      0.41271      0.65607  1.0000
  O2          0.38773      0.44049      0.48767  1.0000
  O2          0.54356      0.96544      0.82007  1.0000
  O2          0.99666      0.57205      0.14909  1.0000
  O2          0.53707      0.58463      0.34013  1.0000
  O2          0.00475      0.43315      0.00516  1.0000
  O2          0.39480      0.96818      0.67216  1.0000
  O2          0.42734      0.40560      0.83982  1.0000
  O2          0.94527      0.55537      0.50782  1.0000
  O3          0.57788      0.02223      0.16606  1.0000
  O3          0.57610      0.17967      0.25431  1.0000
  O2          0.81446      0.41395      0.58319  1.0000
  O2          0.57269      0.41667      0.91429  1.0000
  O2          0.40116      0.82984      0.74587  1.0000
  O2          0.13678      0.57087      0.07839  1.0000
  O2          0.39152      0.57866      0.41289  1.0000
  F           0.45036      0.94100      0.23828  1.0000
  F           0.07511      0.54459      0.57979  1.0000
  F           0.43522      0.54708      0.91174  1.0000
  F           0.53291      0.09237      0.74563  1.0000
  F           0.84691      0.43174      0.06964  1.0000
  F           0.52236      0.44982      0.41380  1.0000
