data_cif

_audit_creation_method             'generated by GULP'

_symmetry_space_group_name_H-M     'P 1'
_symmetry_Int_Tables_number        1
_symmetry_cell_setting             triclinic

_cell_length_a                       11.9647
_cell_length_b                       11.9993
_cell_length_c                       29.3761
_cell_angle_alpha                   89.5724
_cell_angle_beta                    90.4883
_cell_angle_gamma                  120.1912

loop_
_atom_site_label
_atom_site_fract_x
_atom_site_fract_y
_atom_site_fract_z
_atom_site_occupancy
  Ge          0.69960      0.37570      0.03389  1.0000
  Si          0.59182      0.29777      0.36447  1.0000
  Si          0.65748      0.28932      0.69741  1.0000
  Si          0.28525      0.61180      0.52807  1.0000
  Si          0.36172      0.66660      0.86333  1.0000
  Si          0.29643      0.68520      0.19812  1.0000
  Si          0.34987      0.67851      0.29879  1.0000
  Si          0.30722      0.61075      0.96387  1.0000
  Si          0.28094      0.67227      0.63026  1.0000
  Si          0.60536      0.29003      0.79836  1.0000
  Si          0.64431      0.34896      0.46519  1.0000
  Si          0.66521      0.30217      0.13215  1.0000
  Si          0.51976      0.40821      0.96619  1.0000
  Si          0.55536      0.08703      0.30123  1.0000
  Si          0.86402      0.46225      0.63077  1.0000
  Si          0.44973      0.55883      0.46505  1.0000
  Si          0.39949      0.87814      0.79860  1.0000
  Si          0.08748      0.51573      0.13109  1.0000
  Si          0.39132      0.50639      0.36351  1.0000
  Si          0.09335      0.57319      0.02767  1.0000
  Si          0.45083      0.88104      0.69652  1.0000
  Si          0.56802      0.46213      0.86321  1.0000
  Si          0.85780      0.39773      0.52787  1.0000
  Si          0.50286      0.09186      0.19956  1.0000
  Si          0.28693      0.39091      0.84850  1.0000
  Si          0.57516      0.88559      0.18347  1.0000
  Ge          0.07407      0.67106      0.52119  1.0000
  Si          0.67203      0.57614      0.34970  1.0000
  Si          0.37865      0.08897      0.68228  1.0000
  Si          0.88087      0.28601      0.01123  1.0000
  Si          0.36810      0.27599      0.47924  1.0000
  Si          0.87271      0.58645      0.14381  1.0000
  Si          0.68173      0.08816      0.81330  1.0000
  Si          0.58627      0.68902      0.97858  1.0000
  Si          0.07764      0.39067      0.64599  1.0000
  Si          0.27251      0.87854      0.31489  1.0000
  Si          0.23965      0.33221      0.94920  1.0000
  Si          0.63269      0.88726      0.28457  1.0000
  Si          0.06657      0.74594      0.61699  1.0000
  Si          0.72821      0.63371      0.45071  1.0000
  Si          0.32293      0.08013      0.78336  1.0000
  Si          0.88225      0.23474      0.11473  1.0000
  Si          0.31112      0.22695      0.37821  1.0000
  Si          0.89255      0.65729      0.04122  1.0000
  Si          0.72987      0.08200      0.71229  1.0000
  Si          0.64293      0.73974      0.87755  1.0000
  Si          0.06728      0.32606      0.54433  1.0000
  Si          0.22305      0.89098      0.21366  1.0000
  Si          0.96122      0.11342      0.96342  1.0000
  Si          0.85033      0.82432      0.29884  1.0000
  Si          0.12873      0.02069      0.63293  1.0000
  Si          0.00847      0.85603      0.46718  1.0000
  Si          0.10609      0.14268      0.79824  1.0000
  Si          0.82348      0.95712      0.13225  1.0000
  Si          0.09337      0.94692      0.36512  1.0000
  Si          0.83407      0.87440      0.03048  1.0000
  Si          0.00945      0.14384      0.69746  1.0000
  Si          0.86255      0.01847      0.86310  1.0000
  Si          0.12027      0.10075      0.53039  1.0000
  Si          0.94384      0.83235      0.19712  1.0000
  O2          0.91457      0.99880      0.99947  1.0000
  O2          0.97277      0.90374      0.33124  1.0000
  O2          0.05105      0.06678      0.66425  1.0000
  O2          0.03732      0.97962      0.49814  1.0000
  O2          0.98359      0.06194      0.83025  1.0000
  O2          0.90518      0.91729      0.16534  1.0000
  O2          0.31327      0.55494      0.33110  1.0000
  O2          0.40282      0.75638      0.66365  1.0000
  O2          0.22155      0.64777      0.99671  1.0000
  O2          0.64413      0.41286      0.83083  1.0000
  O2          0.55386      0.22133      0.16929  1.0000
  O2          0.72638      0.30793      0.49881  1.0000
  O3          0.56443      0.33272      0.99794  1.0000
  O2          0.74114      0.41211      0.66414  1.0000
  O2          0.63205      0.21264      0.33323  1.0000
  O2          0.41028      0.63942      0.49882  1.0000
  O2          0.21064      0.56341      0.16452  1.0000
  O2          0.32264      0.75202      0.83069  1.0000
  O2          0.11537      0.20259      0.96904  1.0000
  O2          0.75875      0.88642      0.30464  1.0000
  O2          0.06920      0.86815      0.64209  1.0000
  O2          0.85339      0.75668      0.47206  1.0000
  O2          0.19676      0.07924      0.80363  1.0000
  O2          0.88387      0.11120      0.13659  1.0000
  O2          0.18489      0.10083      0.35778  1.0000
  O2          0.90887      0.79482      0.02578  1.0000
  O2          0.85530      0.08122      0.69204  1.0000
  O2          0.76975      0.86514      0.85693  1.0000
  O2          0.06404      0.19849      0.52530  1.0000
  O2          0.09823      0.89411      0.19314  1.0000
  O2          0.90059      0.83835      0.24774  1.0000
  O2          0.10800      0.05222      0.58183  1.0000
  O2          0.91849      0.05309      0.91374  1.0000
  O2          0.05209      0.13023      0.74757  1.0000
  O2          0.83759      0.91973      0.08170  1.0000
  O2          0.04070      0.91096      0.41563  1.0000
  O2          0.89506      0.19860      0.97289  1.0000
  O2          0.76892      0.67255      0.31073  1.0000
  O2          0.28199      0.09312      0.64392  1.0000
  O3          0.08404      0.78558      0.47936  1.0000
  O2          0.18850      0.29402      0.80987  1.0000
  O2          0.67186      0.88581      0.14484  1.0000
  O2          0.17554      0.87695      0.35342  1.0000
  O2          0.68366      0.78816      0.01689  1.0000
  O2          0.07811      0.29623      0.68536  1.0000
  O2          0.78070      0.08922      0.85182  1.0000
  O2          0.27190      0.17986      0.51808  1.0000
  O2          0.87399      0.68267      0.18249  1.0000
  O2          0.29426      0.62311      0.24787  1.0000
  O2          0.33374      0.66888      0.57986  1.0000
  O2          0.30317      0.66677      0.91341  1.0000
  O2          0.66019      0.34736      0.74767  1.0000
  O3          0.60322      0.29721      0.08390  1.0000
  O2          0.64752      0.29487      0.41490  1.0000
  O2          0.36180      0.32276      0.96693  1.0000
  O2          0.64329      0.01892      0.30339  1.0000
  O2          0.93385      0.61789      0.63353  1.0000
  O2          0.60560      0.64506      0.46738  1.0000
  O2          0.31260      0.94726      0.80128  1.0000
  O2          0.01399      0.35991      0.13231  1.0000
  O2          0.30288      0.35031      0.35959  1.0000
  O2          0.02569      0.66109      0.02613  1.0000
  O2          0.60732      0.95050      0.69318  1.0000
  O2          0.65316      0.61837      0.85898  1.0000
  O2          0.93403      0.31688      0.52766  1.0000
  O2          0.34637      0.02285      0.19528  1.0000
  O3          0.74864      0.28055      0.00185  1.0000
  O2          0.66775      0.44062      0.34150  1.0000
  O2          0.51418      0.22180      0.67452  1.0000
  O3          0.22354      0.68638      0.50369  1.0000
  O2          0.28710      0.52467      0.83982  1.0000
  O2          0.43900      0.75327      0.17498  1.0000
  O2          0.27279      0.74422      0.32090  1.0000
  O2          0.45152      0.68861      0.98595  1.0000
  O2          0.20980      0.52692      0.65099  1.0000
  O2          0.68131      0.22172      0.82037  1.0000
  O2          0.50053      0.27315      0.48696  1.0000
  O2          0.74057      0.45114      0.15112  1.0000
  O3          0.76838      0.54428      0.01837  1.0000
  O2          0.43550      0.22382      0.35881  1.0000
  O2          0.73434      0.21026      0.69261  1.0000
  O2          0.19189      0.45467      0.52610  1.0000
  O2          0.51830      0.74341      0.85799  1.0000
  O2          0.21866      0.76367      0.19355  1.0000
  O2          0.50614      0.76127      0.30370  1.0000
  O2          0.23436      0.45486      0.96930  1.0000
  O2          0.19280      0.73876      0.63396  1.0000
  O2          0.44919      0.20586      0.80302  1.0000
  O2          0.71996      0.50439      0.47069  1.0000
  O2          0.75825      0.23832      0.13322  1.0000
  O2          0.21563      0.31574      0.89475  1.0000
  O2          0.64930      0.88718      0.22999  1.0000
  O3          0.06767      0.77325      0.56426  1.0000
  O2          0.74615      0.64865      0.39600  1.0000
  O2          0.30511      0.08395      0.72890  1.0000
  O2          0.88333      0.22122      0.06024  1.0000
  O2          0.29210      0.20724      0.43267  1.0000
  O2          0.87874      0.65758      0.09655  1.0000
  O2          0.75063      0.08326      0.76671  1.0000
  O2          0.66113      0.75907      0.93202  1.0000
  O2          0.07193      0.31929      0.59916  1.0000
  O2          0.20411      0.88683      0.26811  1.0000
  O2          0.57021      0.55025      0.98812  1.0000
  O2          0.41423      0.00075      0.32408  1.0000
  O2          0.95663      0.41202      0.65146  1.0000
  O2          0.38677      0.41687      0.48819  1.0000
  O2          0.54134      0.96344      0.82169  1.0000
  O2          0.99526      0.56636      0.15034  1.0000
  O2          0.53342      0.56522      0.34096  1.0000
  O2          0.00290      0.43219      0.00625  1.0000
  O2          0.39091      0.96287      0.67320  1.0000
  O2          0.42583      0.40349      0.84001  1.0000
  O3          0.93243      0.53199      0.50158  1.0000
  O2          0.56281      0.01223      0.17529  1.0000
  O2          0.55460      0.14169      0.25064  1.0000
  O2          0.81449      0.40877      0.57980  1.0000
  O2          0.57111      0.41326      0.91429  1.0000
  O2          0.39897      0.82653      0.74739  1.0000
  O2          0.13601      0.56639      0.07986  1.0000
  O2          0.39212      0.55867      0.41455  1.0000
  F           0.42288      0.88044      0.24747  1.0000
  F           0.07376      0.56514      0.56981  1.0000
  F           0.43306      0.54258      0.91228  1.0000
  F           0.53137      0.08844      0.74631  1.0000
  F           0.84418      0.42849      0.07079  1.0000
  F           0.51887      0.42413      0.41383  1.0000
