data_cif

_audit_creation_method             'generated by GULP'

_symmetry_space_group_name_H-M     'P 1'
_symmetry_Int_Tables_number        1
_symmetry_cell_setting             triclinic

_cell_length_a                       11.9280
_cell_length_b                       12.0347
_cell_length_c                       29.3726
_cell_angle_alpha                   89.9556
_cell_angle_beta                    90.8938
_cell_angle_gamma                  120.1904

loop_
_atom_site_label
_atom_site_fract_x
_atom_site_fract_y
_atom_site_fract_z
_atom_site_occupancy
  Ge          0.69960      0.37570      0.03389  1.0000
  Si          0.60363      0.31001      0.36527  1.0000
  Si          0.67361      0.29113      0.69950  1.0000
  Si          0.28458      0.60939      0.53144  1.0000
  Si          0.35039      0.65838      0.86422  1.0000
  Si          0.30077      0.69056      0.19816  1.0000
  Si          0.35747      0.68628      0.29893  1.0000
  Si          0.30285      0.60792      0.96455  1.0000
  Si          0.28977      0.66629      0.63236  1.0000
  Si          0.61746      0.30089      0.80168  1.0000
  Si          0.66182      0.36833      0.46615  1.0000
  Si          0.66679      0.30515      0.13213  1.0000
  Si          0.52154      0.41273      0.96597  1.0000
  Si          0.56458      0.09686      0.30193  1.0000
  Si          0.88004      0.45984      0.63339  1.0000
  Si          0.45248      0.56954      0.46555  1.0000
  Si          0.40082      0.87140      0.80243  1.0000
  Si          0.08877      0.51808      0.13142  1.0000
  Si          0.39660      0.51354      0.36345  1.0000
  Si          0.09064      0.57182      0.02807  1.0000
  Si          0.46323      0.87504      0.69943  1.0000
  Si          0.56581      0.46902      0.86346  1.0000
  Si          0.87494      0.40637      0.53142  1.0000
  Si          0.50836      0.09827      0.20010  1.0000
  Si          0.28016      0.38563      0.84898  1.0000
  Si          0.58012      0.89144      0.18375  1.0000
  Si          0.08255      0.68636      0.51658  1.0000
  Si          0.67840      0.58571      0.34957  1.0000
  Si          0.39064      0.08649      0.68377  1.0000
  Si          0.87955      0.28361      0.01118  1.0000
  Si          0.38282      0.29100      0.47981  1.0000
  Si          0.87416      0.58931      0.14399  1.0000
  Ge          0.67562      0.08980      0.80872  1.0000
  Si          0.58460      0.69214      0.97827  1.0000
  Si          0.09023      0.38835      0.64735  1.0000
  Si          0.28277      0.88741      0.31477  1.0000
  Si          0.23827      0.33136      0.94980  1.0000
  Si          0.63955      0.89573      0.28501  1.0000
  Si          0.07976      0.73774      0.61760  1.0000
  Si          0.73205      0.64686      0.45058  1.0000
  Si          0.33030      0.08088      0.78546  1.0000
  Si          0.88403      0.23727      0.11497  1.0000
  Si          0.32113      0.23675      0.37885  1.0000
  Si          0.89089      0.65776      0.04149  1.0000
  Si          0.74849      0.07919      0.71307  1.0000
  Si          0.63787      0.74556      0.87723  1.0000
  Si          0.07669      0.32844      0.54617  1.0000
  Si          0.22816      0.89687      0.21394  1.0000
  Si          0.96097      0.11159      0.96274  1.0000
  Si          0.85670      0.83173      0.29871  1.0000
  Si          0.14204      0.01665      0.63117  1.0000
  Si          0.01318      0.86563      0.46556  1.0000
  Si          0.10546      0.13534      0.79830  1.0000
  Si          0.82686      0.96149      0.13212  1.0000
  Si          0.10382      0.95566      0.36441  1.0000
  Si          0.83488      0.87648      0.03025  1.0000
  Si          0.02318      0.14027      0.69568  1.0000
  Si          0.86172      0.02316      0.86149  1.0000
  Si          0.13695      0.11025      0.53043  1.0000
  Si          0.94722      0.83671      0.19700  1.0000
  O2          0.91570      0.99821      0.99895  1.0000
  O2          0.98168      0.91177      0.33085  1.0000
  O2          0.06548      0.06192      0.66297  1.0000
  O2          0.05569      0.98901      0.49735  1.0000
  O2          0.98324      0.05225      0.82949  1.0000
  O2          0.90870      0.92138      0.16533  1.0000
  O2          0.31915      0.56231      0.33075  1.0000
  O2          0.41346      0.75179      0.66580  1.0000
  O2          0.21854      0.64595      0.99760  1.0000
  O2          0.64551      0.42740      0.82982  1.0000
  O2          0.55734      0.22575      0.16975  1.0000
  O2          0.74676      0.32964      0.49912  1.0000
  O3          0.56538      0.33581      0.99738  1.0000
  O2          0.75583      0.41167      0.66609  1.0000
  O2          0.64232      0.22321      0.33422  1.0000
  O2          0.40563      0.64681      0.49808  1.0000
  O2          0.21402      0.56788      0.16480  1.0000
  O2          0.30958      0.74161      0.83095  1.0000
  O2          0.11544      0.20254      0.96997  1.0000
  O2          0.76649      0.89503      0.30519  1.0000
  O2          0.07930      0.86351      0.63736  1.0000
  O2          0.85861      0.77432      0.47090  1.0000
  O2          0.20369      0.07982      0.80453  1.0000
  O2          0.88659      0.11501      0.13712  1.0000
  O2          0.19408      0.10933      0.35872  1.0000
  O2          0.90785      0.79488      0.02634  1.0000
  O2          0.86952      0.08135      0.68709  1.0000
  O2          0.76027      0.86948      0.85568  1.0000
  O2          0.07342      0.20098      0.52613  1.0000
  O2          0.10213      0.89880      0.19350  1.0000
  O2          0.90454      0.84371      0.24762  1.0000
  O2          0.12773      0.05472      0.58037  1.0000
  O2          0.92115      0.05192      0.91286  1.0000
  O2          0.05860      0.11986      0.74619  1.0000
  O2          0.84047      0.92434      0.08153  1.0000
  O2          0.05097      0.91683      0.41484  1.0000
  O2          0.89308      0.19536      0.97307  1.0000
  O2          0.77505      0.68086      0.31090  1.0000
  O2          0.29515      0.08542      0.64384  1.0000
  O2          0.08331      0.78442      0.47830  1.0000
  O2          0.18290      0.28681      0.81011  1.0000
  O2          0.67517      0.89035      0.14501  1.0000
  O2          0.18652      0.88658      0.35345  1.0000
  O2          0.68338      0.79131      0.01694  1.0000
  O2          0.09593      0.29288      0.68521  1.0000
  O3          0.79134      0.09979      0.85071  1.0000
  O2          0.28843      0.19374      0.51839  1.0000
  O2          0.87689      0.68692      0.18268  1.0000
  O2          0.30046      0.63060      0.24798  1.0000
  O2          0.34579      0.66678      0.58191  1.0000
  O2          0.29399      0.66127      0.91428  1.0000
  O2          0.67213      0.34588      0.74968  1.0000
  O3          0.60308      0.29850      0.08397  1.0000
  O2          0.66215      0.31167      0.41586  1.0000
  O2          0.36329      0.32595      0.96741  1.0000
  O2          0.65184      0.02782      0.30429  1.0000
  O2          0.94891      0.61557      0.63655  1.0000
  O2          0.60969      0.65708      0.46843  1.0000
  O2          0.32069      0.94865      0.80199  1.0000
  O2          0.01583      0.36289      0.13315  1.0000
  O2          0.30927      0.35752      0.36015  1.0000
  O2          0.02384      0.66029      0.02683  1.0000
  O2          0.61960      0.94595      0.69656  1.0000
  O2          0.64922      0.62393      0.85982  1.0000
  O2          0.94292      0.31873      0.52804  1.0000
  O2          0.35117      0.02842      0.19609  1.0000
  O3          0.74609      0.27765      0.00249  1.0000
  O2          0.67761      0.45175      0.34229  1.0000
  O2          0.52695      0.21800      0.67845  1.0000
  O2          0.21612      0.68488      0.50924  1.0000
  O2          0.27507      0.51622      0.84073  1.0000
  O2          0.44339      0.75911      0.17551  1.0000
  O2          0.28218      0.75344      0.32145  1.0000
  O2          0.44825      0.68808      0.98667  1.0000
  O2          0.22359      0.52409      0.65471  1.0000
  O3          0.69329      0.24009      0.82591  1.0000
  O2          0.51830      0.29317      0.48804  1.0000
  O2          0.74240      0.45420      0.15141  1.0000
  O3          0.76670      0.54364      0.01867  1.0000
  O2          0.44657      0.23558      0.35964  1.0000
  O2          0.74105      0.20414      0.69570  1.0000
  O2          0.20219      0.45363      0.52645  1.0000
  O2          0.50671      0.73774      0.85803  1.0000
  O2          0.22379      0.76969      0.19388  1.0000
  O2          0.51437      0.76934      0.30423  1.0000
  O2          0.23081      0.45278      0.97013  1.0000
  O2          0.20904      0.74155      0.63691  1.0000
  O2          0.45992      0.20585      0.80361  1.0000
  O2          0.73523      0.52389      0.47091  1.0000
  O2          0.75988      0.24113      0.13329  1.0000
  O2          0.21204      0.31151      0.89534  1.0000
  O2          0.65523      0.89435      0.23051  1.0000
  O2          0.07866      0.75591      0.56314  1.0000
  O2          0.75052      0.66188      0.39611  1.0000
  O2          0.32079      0.08313      0.73049  1.0000
  O2          0.88451      0.22231      0.06057  1.0000
  O2          0.30556      0.21918      0.43334  1.0000
  O2          0.87844      0.65909      0.09694  1.0000
  O3          0.77858      0.08297      0.76567  1.0000
  O2          0.65582      0.76435      0.93196  1.0000
  O2          0.08298      0.31366      0.60057  1.0000
  O2          0.21082      0.89404      0.26847  1.0000
  O2          0.57310      0.55556      0.98738  1.0000
  O2          0.42369      0.01131      0.32477  1.0000
  O2          0.96459      0.40223      0.65631  1.0000
  O2          0.39601      0.42932      0.48865  1.0000
  O3          0.53710      0.94909      0.82832  1.0000
  O2          0.99750      0.56979      0.15084  1.0000
  O2          0.53772      0.57072      0.34048  1.0000
  O2          0.99940      0.43072      0.00644  1.0000
  O2          0.41095      0.96531      0.67836  1.0000
  O2          0.42177      0.40398      0.84035  1.0000
  O2          0.95692      0.54636      0.50780  1.0000
  O2          0.56695      0.01722      0.17612  1.0000
  O2          0.56222      0.14959      0.25132  1.0000
  O2          0.82370      0.40661      0.58239  1.0000
  O2          0.57112      0.41797      0.91393  1.0000
  O2          0.41116      0.82741      0.75025  1.0000
  O2          0.13524      0.56613      0.08027  1.0000
  O2          0.39712      0.56715      0.41436  1.0000
  F           0.42947      0.88826      0.24916  1.0000
  F           0.08589      0.53791      0.58211  1.0000
  F           0.42639      0.54110      0.91310  1.0000
  F           0.56876      0.08711      0.75982  1.0000
  F           0.84417      0.42967      0.07130  1.0000
  F           0.52997      0.43825      0.41476  1.0000
