data_cif

_audit_creation_method             'generated by GULP'

_symmetry_space_group_name_H-M     'P 1'
_symmetry_Int_Tables_number        1
_symmetry_cell_setting             triclinic

_cell_length_a                       11.9665
_cell_length_b                       11.9968
_cell_length_c                       29.4885
_cell_angle_alpha                   89.7155
_cell_angle_beta                    90.2254
_cell_angle_gamma                  120.4326

loop_
_atom_site_label
_atom_site_fract_x
_atom_site_fract_y
_atom_site_fract_z
_atom_site_occupancy
  Ge          0.69960      0.37570      0.03389  1.0000
  Si          0.58359      0.30180      0.36456  1.0000
  Si          0.63812      0.27123      0.69622  1.0000
  Si          0.25811      0.59728      0.52943  1.0000
  Si          0.34030      0.64973      0.86253  1.0000
  Si          0.28795      0.68711      0.19810  1.0000
  Si          0.33984      0.67961      0.29832  1.0000
  Si          0.29004      0.60228      0.96547  1.0000
  Si          0.25918      0.65117      0.62993  1.0000
  Si          0.58475      0.27127      0.79676  1.0000
  Si          0.63752      0.35658      0.46503  1.0000
  Si          0.65892      0.30197      0.13150  1.0000
  Si          0.50894      0.39065      0.96656  1.0000
  Si          0.54710      0.09068      0.30122  1.0000
  Si          0.84860      0.44346      0.63115  1.0000
  Si          0.42950      0.55988      0.46423  1.0000
  Si          0.38033      0.86145      0.79707  1.0000
  Si          0.08016      0.51807      0.13116  1.0000
  Si          0.37798      0.50637      0.36263  1.0000
  Si          0.08676      0.57896      0.02866  1.0000
  Si          0.42993      0.86073      0.69553  1.0000
  Si          0.54938      0.44401      0.86179  1.0000
  Si          0.84798      0.39243      0.52967  1.0000
  Si          0.49576      0.09431      0.19984  1.0000
  Si          0.26237      0.36920      0.84491  1.0000
  Si          0.56822      0.88790      0.18380  1.0000
  Si          0.05715      0.67429      0.51485  1.0000
  Si          0.65957      0.57911      0.34867  1.0000
  Si          0.35851      0.06935      0.68138  1.0000
  Si          0.88216      0.28835      0.01021  1.0000
  Si          0.35855      0.27938      0.47876  1.0000
  Si          0.86486      0.58746      0.14398  1.0000
  Si          0.66295      0.07110      0.81147  1.0000
  Si          0.57282      0.67477      0.97943  1.0000
  Si          0.05759      0.37180      0.64501  1.0000
  Si          0.26406      0.88017      0.31399  1.0000
  Ge          0.24387      0.33821      0.94495  1.0000
  Si          0.62323      0.89004      0.28463  1.0000
  Si          0.05033      0.72321      0.61547  1.0000
  Si          0.70880      0.63694      0.44927  1.0000
  Si          0.30200      0.06135      0.78205  1.0000
  Si          0.87750      0.23617      0.11359  1.0000
  Si          0.30151      0.22812      0.37823  1.0000
  Si          0.88491      0.66032      0.04212  1.0000
  Si          0.71033      0.06311      0.71070  1.0000
  Si          0.62850      0.72462      0.87715  1.0000
  Si          0.04869      0.31474      0.54435  1.0000
  Si          0.21432      0.89308      0.21348  1.0000
  Si          0.95845      0.11231      0.96120  1.0000
  Si          0.84006      0.82699      0.29755  1.0000
  Si          0.11067      0.00213      0.63003  1.0000
  Si          0.98952      0.85482      0.46416  1.0000
  Si          0.08533      0.12395      0.79486  1.0000
  Si          0.81502      0.95749      0.13108  1.0000
  Si          0.08352      0.94714      0.36324  1.0000
  Si          0.82133      0.87265      0.02930  1.0000
  Si          0.98902      0.12226      0.69470  1.0000
  Si          0.84630      0.00786      0.86247  1.0000
  Si          0.11040      0.09744      0.52935  1.0000
  Si          0.93471      0.83384      0.19629  1.0000
  O2          0.89270      0.99428      0.99709  1.0000
  O2          0.96425      0.90572      0.32933  1.0000
  O2          0.02857      0.04305      0.66132  1.0000
  O2          0.03153      0.97710      0.49614  1.0000
  O2          0.96452      0.04886      0.82830  1.0000
  O2          0.89756      0.91669      0.16311  1.0000
  O2          0.30070      0.55453      0.33012  1.0000
  O2          0.38217      0.73603      0.66294  1.0000
  O2          0.21572      0.65524      0.99767  1.0000
  O2          0.62456      0.39492      0.82911  1.0000
  O2          0.54783      0.22256      0.16904  1.0000
  O2          0.72089      0.31655      0.49762  1.0000
  O3          0.56850      0.32585      0.99609  1.0000
  O2          0.72316      0.39494      0.66355  1.0000
  O2          0.62365      0.21629      0.33345  1.0000
  O2          0.38097      0.63627      0.49641  1.0000
  O2          0.20293      0.56538      0.16460  1.0000
  O2          0.30465      0.73610      0.82997  1.0000
  O3          0.10778      0.18855      0.96566  1.0000
  O2          0.74951      0.88963      0.30459  1.0000
  O2          0.04873      0.84796      0.63566  1.0000
  O2          0.83481      0.76365      0.46971  1.0000
  O2          0.17477      0.05947      0.80179  1.0000
  O2          0.87789      0.11210      0.13556  1.0000
  O2          0.17522      0.10158      0.35778  1.0000
  O2          0.90065      0.79717      0.02627  1.0000
  O2          0.83450      0.06127      0.68974  1.0000
  O2          0.75256      0.85244      0.85705  1.0000
  O2          0.04678      0.18782      0.52444  1.0000
  O2          0.08981      0.89649      0.19323  1.0000
  O2          0.88887      0.84186      0.24633  1.0000
  O2          0.09798      0.04147      0.57935  1.0000
  O2          0.90010      0.04570      0.91262  1.0000
  O2          0.02858      0.10347      0.74456  1.0000
  O2          0.82202      0.91876      0.08021  1.0000
  O2          0.02788      0.90689      0.41340  1.0000
  O2          0.90235      0.20779      0.97124  1.0000
  O2          0.75778      0.67499      0.30980  1.0000
  O2          0.26246      0.07270      0.64295  1.0000
  O2          0.05901      0.77312      0.47653  1.0000
  O2          0.17274      0.27786      0.80315  1.0000
  O2          0.66423      0.88704      0.14535  1.0000
  O2          0.16579      0.87755      0.35236  1.0000
  O2          0.67063      0.77614      0.01665  1.0000
  O2          0.06001      0.27490      0.68320  1.0000
  O2          0.76154      0.07434      0.85005  1.0000
  O2          0.26249      0.18155      0.51745  1.0000
  O2          0.86565      0.68305      0.18291  1.0000
  O2          0.28473      0.62467      0.24764  1.0000
  O2          0.31697      0.65367      0.57963  1.0000
  O2          0.28699      0.64913      0.91318  1.0000
  O2          0.64092      0.32877      0.74643  1.0000
  O3          0.59862      0.29807      0.08349  1.0000
  O2          0.63950      0.30136      0.41489  1.0000
  O3          0.35439      0.30112      0.96982  1.0000
  O2          0.63436      0.02200      0.30355  1.0000
  O2          0.91777      0.59985      0.63389  1.0000
  O2          0.58653      0.64743      0.46708  1.0000
  O2          0.29294      0.92957      0.80077  1.0000
  O2          0.00685      0.36204      0.13265  1.0000
  O2          0.29069      0.34972      0.35956  1.0000
  O2          0.02027      0.66755      0.02790  1.0000
  O2          0.58669      0.93002      0.69290  1.0000
  O2          0.63386      0.60109      0.85844  1.0000
  O2          0.91591      0.30479      0.52607  1.0000
  O2          0.33904      0.02542      0.19563  1.0000
  O3          0.74755      0.27900      0.00268  1.0000
  O2          0.65879      0.44486      0.34155  1.0000
  O2          0.49400      0.20340      0.67402  1.0000
  O2          0.19058      0.67313      0.50719  1.0000
  O2          0.26731      0.50727      0.83983  1.0000
  O2          0.43136      0.75559      0.17551  1.0000
  O2          0.26313      0.74555      0.32059  1.0000
  O2          0.43869      0.67600      0.98425  1.0000
  O2          0.19173      0.50727      0.65216  1.0000
  O2          0.65975      0.20307      0.81905  1.0000
  O2          0.49312      0.28094      0.48684  1.0000
  O2          0.73406      0.45047      0.15130  1.0000
  O3          0.76264      0.54487      0.01918  1.0000
  O2          0.42695      0.22682      0.35901  1.0000
  O2          0.71156      0.18935      0.69101  1.0000
  O2          0.17570      0.44079      0.52465  1.0000
  O2          0.49617      0.71591      0.86068  1.0000
  O2          0.21089      0.76604      0.19361  1.0000
  O2          0.49645      0.76291      0.30373  1.0000
  O3          0.21090      0.44983      0.97329  1.0000
  O2          0.17734      0.72484      0.63483  1.0000
  O2          0.42791      0.18881      0.80151  1.0000
  O2          0.71067      0.51277      0.46951  1.0000
  O2          0.75105      0.23703      0.13126  1.0000
  O3          0.18527      0.28902      0.88824  1.0000
  O2          0.64097      0.88959      0.23036  1.0000
  O2          0.05281      0.74362      0.56120  1.0000
  O2          0.72988      0.65444      0.39497  1.0000
  O2          0.28381      0.06305      0.72775  1.0000
  O2          0.88577      0.22557      0.05950  1.0000
  O2          0.28334      0.20822      0.43249  1.0000
  O2          0.86976      0.65953      0.09729  1.0000
  O2          0.73263      0.06777      0.76492  1.0000
  O2          0.64184      0.73457      0.93131  1.0000
  O2          0.05140      0.29728      0.59860  1.0000
  O2          0.19487      0.88852      0.26778  1.0000
  O2          0.55130      0.53369      0.98782  1.0000
  O2          0.40502      0.00398      0.32384  1.0000
  O2          0.93265      0.38613      0.65411  1.0000
  O2          0.37203      0.41831      0.48726  1.0000
  O2          0.52323      0.94327      0.81983  1.0000
  O2          0.98869      0.56967      0.15037  1.0000
  O2          0.51984      0.56476      0.33957  1.0000
  O2          0.99641      0.43953      0.00624  1.0000
  O2          0.37234      0.94433      0.67240  1.0000
  O2          0.40691      0.38988      0.83986  1.0000
  O2          0.93115      0.53406      0.50623  1.0000
  O2          0.55589      0.01440      0.17608  1.0000
  O2          0.54719      0.14519      0.25077  1.0000
  O2          0.79469      0.39045      0.58043  1.0000
  O2          0.55237      0.39834      0.91292  1.0000
  O2          0.37650      0.80680      0.74634  1.0000
  O2          0.12985      0.56992      0.08034  1.0000
  O2          0.37692      0.55931      0.41322  1.0000
  F           0.41405      0.88284      0.24841  1.0000
  F           0.05698      0.52264      0.57969  1.0000
  F           0.38476      0.48830      0.91780  1.0000
  F           0.50909      0.06846      0.74660  1.0000
  F           0.84101      0.43158      0.07144  1.0000
  F           0.50843      0.42923      0.41349  1.0000
