data_cif

_audit_creation_method             'generated by GULP'

_symmetry_space_group_name_H-M     'P 1'
_symmetry_Int_Tables_number        1
_symmetry_cell_setting             triclinic

_cell_length_a                       11.9686
_cell_length_b                       12.0020
_cell_length_c                       29.4779
_cell_angle_alpha                   90.3969
_cell_angle_beta                    90.4592
_cell_angle_gamma                  120.4659

loop_
_atom_site_label
_atom_site_fract_x
_atom_site_fract_y
_atom_site_fract_z
_atom_site_occupancy
  Ge          0.69960      0.37570      0.03389  1.0000
  Si          0.60430      0.31103      0.36564  1.0000
  Si          0.65594      0.28061      0.69945  1.0000
  Si          0.25987      0.59890      0.52997  1.0000
  Si          0.36093      0.65999      0.86197  1.0000
  Si          0.30473      0.69481      0.19568  1.0000
  Si          0.35723      0.68678      0.29598  1.0000
  Si          0.30699      0.61025      0.96217  1.0000
  Si          0.27352      0.65997      0.63025  1.0000
  Si          0.60323      0.28018      0.79989  1.0000
  Si          0.65518      0.36382      0.46872  1.0000
  Si          0.67226      0.30905      0.13206  1.0000
  Si          0.51852      0.40685      0.96709  1.0000
  Si          0.56386      0.09628      0.30174  1.0000
  Si          0.86417      0.45084      0.63473  1.0000
  Si          0.43975      0.57444      0.46472  1.0000
  Si          0.39759      0.86863      0.79730  1.0000
  Si          0.09424      0.52443      0.12829  1.0000
  Si          0.39410      0.51503      0.36077  1.0000
  Si          0.09386      0.57532      0.02530  1.0000
  Si          0.44909      0.87155      0.69566  1.0000
  Si          0.56682      0.45448      0.86453  1.0000
  Si          0.85641      0.39015      0.53364  1.0000
  Si          0.51421      0.10325      0.20038  1.0000
  Si          0.28510      0.38209      0.84826  1.0000
  Si          0.58541      0.89603      0.18296  1.0000
  Si          0.05694      0.67297      0.51571  1.0000
  Si          0.68113      0.58981      0.34566  1.0000
  Si          0.37658      0.07926      0.68286  1.0000
  Si          0.87979      0.28548      0.00985  1.0000
  Si          0.37185      0.29105      0.48037  1.0000
  Si          0.88043      0.59537      0.14217  1.0000
  Si          0.68029      0.07945      0.81290  1.0000
  Si          0.58528      0.68835      0.97814  1.0000
  Si          0.07535      0.38173      0.64717  1.0000
  Si          0.28054      0.88667      0.31328  1.0000
  Si          0.23890      0.33094      0.94875  1.0000
  Si          0.64081      0.89657      0.28388  1.0000
  Si          0.06233      0.72994      0.61679  1.0000
  Ge          0.70492      0.62801      0.44574  1.0000
  Si          0.32056      0.06963      0.78349  1.0000
  Si          0.88800      0.24144      0.11303  1.0000
  Si          0.31559      0.23511      0.37806  1.0000
  Si          0.89340      0.65924      0.03982  1.0000
  Si          0.72964      0.07354      0.71221  1.0000
  Si          0.64247      0.73353      0.87767  1.0000
  Si          0.05920      0.31611      0.54678  1.0000
  Si          0.23257      0.90155      0.21267  1.0000
  Si          0.96032      0.11209      0.96227  1.0000
  Si          0.85745      0.83313      0.29591  1.0000
  Si          0.12809      0.01142      0.63096  1.0000
  Si          0.99227      0.85470      0.46367  1.0000
  Si          0.10389      0.13190      0.79696  1.0000
  Si          0.83207      0.96576      0.13081  1.0000
  Si          0.09874      0.94990      0.36398  1.0000
  Si          0.83499      0.87608      0.02928  1.0000
  Si          0.00952      0.13460      0.69626  1.0000
  Si          0.86215      0.01184      0.86211  1.0000
  Si          0.12388      0.10150      0.52989  1.0000
  Si          0.95419      0.84463      0.19520  1.0000
  O2          0.91409      0.99863      0.99810  1.0000
  O2          0.97940      0.90778      0.32956  1.0000
  O2          0.04749      0.05540      0.66187  1.0000
  O2          0.04919      0.98184      0.49599  1.0000
  O2          0.98042      0.05273      0.82843  1.0000
  O2          0.91639      0.92860      0.16328  1.0000
  O2          0.31780      0.56129      0.32713  1.0000
  O2          0.39992      0.74719      0.66216  1.0000
  O2          0.22069      0.64900      0.99412  1.0000
  O2          0.64277      0.40331      0.83304  1.0000
  O2          0.56527      0.23207      0.17064  1.0000
  O2          0.72719      0.31090      0.50169  1.0000
  O3          0.56172      0.33190      0.99934  1.0000
  O2          0.74131      0.40496      0.66774  1.0000
  O2          0.64009      0.22119      0.33516  1.0000
  O2          0.37736      0.64109      0.49474  1.0000
  O2          0.21929      0.57374      0.16125  1.0000
  O2          0.32126      0.74232      0.82884  1.0000
  O2          0.11430      0.20302      0.96899  1.0000
  O2          0.76751      0.89658      0.30362  1.0000
  O2          0.06418      0.85724      0.63682  1.0000
  O3          0.84215      0.77494      0.46706  1.0000
  O2          0.19368      0.06815      0.80336  1.0000
  O2          0.89237      0.12020      0.13495  1.0000
  O2          0.19210      0.10528      0.35807  1.0000
  O2          0.90886      0.79575      0.02439  1.0000
  O2          0.85464      0.07278      0.69169  1.0000
  O2          0.76956      0.85747      0.85695  1.0000
  O2          0.05686      0.18896      0.52645  1.0000
  O2          0.10902      0.90604      0.19193  1.0000
  O2          0.91147      0.85466      0.24543  1.0000
  O2          0.11749      0.04815      0.57979  1.0000
  O2          0.92085      0.05103      0.91243  1.0000
  O2          0.05249      0.11807      0.74592  1.0000
  O2          0.84221      0.92461      0.08046  1.0000
  O2          0.04785      0.91234      0.41410  1.0000
  O2          0.89206      0.19570      0.97166  1.0000
  O2          0.77038      0.67900      0.30382  1.0000
  O2          0.27994      0.08196      0.64439  1.0000
  O2          0.05410      0.76520      0.47670  1.0000
  O2          0.18696      0.28376      0.80942  1.0000
  O2          0.68118      0.89495      0.14455  1.0000
  O2          0.18260      0.88255      0.35175  1.0000
  O2          0.68338      0.78959      0.01658  1.0000
  O2          0.08005      0.28714      0.68547  1.0000
  O2          0.77935      0.08103      0.85134  1.0000
  O2          0.27566      0.19283      0.51784  1.0000
  O2          0.88394      0.69396      0.18081  1.0000
  O2          0.30142      0.63222      0.24495  1.0000
  O2          0.32624      0.65802      0.57955  1.0000
  O2          0.30319      0.66346      0.91174  1.0000
  O2          0.65880      0.33830      0.74991  1.0000
  O3          0.60616      0.29962      0.08450  1.0000
  O2          0.65738      0.31520      0.41663  1.0000
  O2          0.36020      0.32170      0.96741  1.0000
  O2          0.65068      0.02741      0.30419  1.0000
  O2          0.93316      0.60744      0.63687  1.0000
  O3          0.59216      0.66604      0.46956  1.0000
  O2          0.31013      0.93687      0.80085  1.0000
  O2          0.02067      0.36856      0.13001  1.0000
  O2          0.30938      0.35784      0.35879  1.0000
  O2          0.02610      0.66284      0.02440  1.0000
  O2          0.60590      0.94087      0.69315  1.0000
  O2          0.65240      0.61078      0.86012  1.0000
  O2          0.92316      0.30171      0.52995  1.0000
  O2          0.35746      0.03426      0.19610  1.0000
  O3          0.74638      0.27856      0.00164  1.0000
  O2          0.67710      0.45193      0.34211  1.0000
  O2          0.51208      0.21347      0.67635  1.0000
  O2          0.19108      0.67337      0.50854  1.0000
  O2          0.28618      0.51576      0.83938  1.0000
  O2          0.44838      0.76374      0.17387  1.0000
  O2          0.28159      0.75300      0.31893  1.0000
  O2          0.45114      0.68942      0.98509  1.0000
  O2          0.20899      0.51851      0.65364  1.0000
  O2          0.67934      0.21241      0.82151  1.0000
  O2          0.50649      0.29264      0.48653  1.0000
  O2          0.74909      0.45975      0.15046  1.0000
  O3          0.76788      0.54360      0.01787  1.0000
  O2          0.44836      0.24474      0.36224  1.0000
  O2          0.73080      0.20011      0.69356  1.0000
  O2          0.18220      0.44177      0.52547  1.0000
  O2          0.51776      0.73556      0.85752  1.0000
  O2          0.22899      0.77487      0.19180  1.0000
  O2          0.51403      0.76851      0.30190  1.0000
  O2          0.23285      0.45441      0.96821  1.0000
  O2          0.19195      0.73401      0.63479  1.0000
  O2          0.44648      0.19625      0.80413  1.0000
  O3          0.73395      0.51702      0.47534  1.0000
  O2          0.76486      0.24493      0.13246  1.0000
  O2          0.21403      0.31019      0.89451  1.0000
  O2          0.65844      0.89777      0.22957  1.0000
  O2          0.05498      0.74334      0.56255  1.0000
  O3          0.75909      0.67357      0.38884  1.0000
  O2          0.30228      0.07298      0.72922  1.0000
  O2          0.88524      0.22408      0.05879  1.0000
  O2          0.30309      0.22784      0.43215  1.0000
  O2          0.88296      0.66314      0.09512  1.0000
  O2          0.75029      0.07590      0.76654  1.0000
  O2          0.66111      0.75673      0.93200  1.0000
  O2          0.06802      0.30372      0.60104  1.0000
  O2          0.21163      0.89477      0.26687  1.0000
  O2          0.56976      0.55050      0.98867  1.0000
  O2          0.42121      0.01211      0.32364  1.0000
  O2          0.95036      0.39529      0.65701  1.0000
  O2          0.39047      0.43237      0.48677  1.0000
  O2          0.54007      0.95328      0.82075  1.0000
  O2          0.00414      0.57703      0.14813  1.0000
  O2          0.53603      0.56753      0.33936  1.0000
  O2          0.00113      0.43241      0.00455  1.0000
  O2          0.39065      0.95462      0.67312  1.0000
  O2          0.42438      0.39475      0.84106  1.0000
  O2          0.93547      0.52858      0.50882  1.0000
  O2          0.57317      0.02268      0.17601  1.0000
  O2          0.56624      0.15303      0.25174  1.0000
  O2          0.80607      0.39301      0.58439  1.0000
  O2          0.56999      0.40878      0.91570  1.0000
  O2          0.39616      0.81677      0.74605  1.0000
  O2          0.13999      0.57207      0.07716  1.0000
  O2          0.39269      0.56636      0.41155  1.0000
  F           0.43240      0.89104      0.24807  1.0000
  F           0.06786      0.52418      0.58181  1.0000
  F           0.43267      0.53859      0.91321  1.0000
  F           0.52867      0.07935      0.74767  1.0000
  F           0.84638      0.43165      0.07003  1.0000
  F           0.55962      0.47744      0.41874  1.0000
