data_cif

_audit_creation_method             'generated by GULP'

_symmetry_space_group_name_H-M     'P 1'
_symmetry_Int_Tables_number        1
_symmetry_cell_setting             triclinic

_cell_length_a                       11.8959
_cell_length_b                       12.0411
_cell_length_c                       29.4808
_cell_angle_alpha                   89.9980
_cell_angle_beta                    90.7658
_cell_angle_gamma                  120.1737

loop_
_atom_site_label
_atom_site_fract_x
_atom_site_fract_y
_atom_site_fract_z
_atom_site_occupancy
  Ge          0.69960      0.37570      0.03389  1.0000
  Si          0.58716      0.31390      0.36660  1.0000
  Si          0.65247      0.28452      0.69875  1.0000
  Si          0.26456      0.60539      0.53194  1.0000
  Si          0.35831      0.66410      0.86307  1.0000
  Si          0.30036      0.68909      0.19806  1.0000
  Si          0.34702      0.67905      0.30104  1.0000
  Si          0.30701      0.61076      0.96318  1.0000
  Si          0.27114      0.66291      0.63232  1.0000
  Si          0.60183      0.28601      0.79939  1.0000
  Si          0.64460      0.36808      0.46687  1.0000
  Si          0.66795      0.30580      0.13180  1.0000
  Si          0.52113      0.41081      0.96626  1.0000
  Si          0.56449      0.10551      0.30409  1.0000
  Si          0.86008      0.45689      0.63385  1.0000
  Si          0.43200      0.56478      0.46634  1.0000
  Si          0.39480      0.87403      0.79892  1.0000
  Si          0.08968      0.51925      0.13014  1.0000
  Si          0.37401      0.50510      0.36514  1.0000
  Si          0.09387      0.57226      0.02715  1.0000
  Si          0.44482      0.87464      0.69726  1.0000
  Si          0.56728      0.46100      0.86372  1.0000
  Si          0.85621      0.40382      0.53231  1.0000
  Si          0.50983      0.10119      0.20031  1.0000
  Si          0.28337      0.38834      0.84833  1.0000
  Si          0.58394      0.89195      0.18132  1.0000
  Si          0.06339      0.68372      0.51760  1.0000
  Si          0.65906      0.58755      0.34935  1.0000
  Si          0.37245      0.08218      0.68321  1.0000
  Si          0.88049      0.28463      0.01114  1.0000
  Si          0.36403      0.28700      0.48092  1.0000
  Si          0.87467      0.59091      0.14286  1.0000
  Si          0.67783      0.08468      0.81364  1.0000
  Si          0.58748      0.69043      0.97831  1.0000
  Si          0.07111      0.38563      0.64732  1.0000
  Si          0.27768      0.88942      0.31664  1.0000
  Si          0.23930      0.33363      0.94874  1.0000
  Ge          0.61544      0.89537      0.28162  1.0000
  Si          0.06037      0.73498      0.61836  1.0000
  Si          0.71307      0.64601      0.45042  1.0000
  Si          0.31890      0.07557      0.78384  1.0000
  Si          0.88528      0.23766      0.11442  1.0000
  Si          0.30218      0.23069      0.38050  1.0000
  Si          0.89257      0.65725      0.04055  1.0000
  Si          0.72534      0.07734      0.71308  1.0000
  Si          0.64209      0.73811      0.87769  1.0000
  Si          0.05730      0.32452      0.54665  1.0000
  Si          0.22582      0.89946      0.21443  1.0000
  Si          0.96175      0.11287      0.96284  1.0000
  Si          0.84075      0.83268      0.29775  1.0000
  Si          0.12202      0.01368      0.63178  1.0000
  Si          0.99538      0.86283      0.46569  1.0000
  Si          0.10239      0.13918      0.79765  1.0000
  Si          0.82821      0.96207      0.13031  1.0000
  Si          0.08829      0.94943      0.36449  1.0000
  Si          0.83847      0.87654      0.02942  1.0000
  Si          0.00576      0.13881      0.69683  1.0000
  Si          0.86051      0.01619      0.86277  1.0000
  Si          0.11746      0.10604      0.53112  1.0000
  Si          0.94148      0.83495      0.19747  1.0000
  O2          0.91844      0.99815      0.99798  1.0000
  O2          0.96937      0.90157      0.32983  1.0000
  O2          0.04322      0.05833      0.66324  1.0000
  O2          0.03831      0.98715      0.49690  1.0000
  O2          0.97923      0.05917      0.82912  1.0000
  O2          0.90498      0.91952      0.16491  1.0000
  O2          0.29395      0.55122      0.33219  1.0000
  O2          0.39660      0.74948      0.66479  1.0000
  O2          0.22114      0.64733      0.99627  1.0000
  O2          0.64225      0.40971      0.83178  1.0000
  O2          0.55864      0.22764      0.16964  1.0000
  O2          0.72862      0.32864      0.49979  1.0000
  O3          0.56370      0.33408      0.99821  1.0000
  O2          0.73552      0.40762      0.66643  1.0000
  O2          0.63165      0.23416      0.33456  1.0000
  O2          0.38579      0.64287      0.49858  1.0000
  O2          0.21338      0.56903      0.16424  1.0000
  O2          0.31843      0.74852      0.83069  1.0000
  O2          0.11615      0.20482      0.96890  1.0000
  O3          0.76060      0.90150      0.30298  1.0000
  O2          0.05982      0.86054      0.63822  1.0000
  O2          0.84001      0.77341      0.47058  1.0000
  O2          0.19306      0.07593      0.80414  1.0000
  O2          0.88982      0.11605      0.13589  1.0000
  O2          0.17681      0.10338      0.35969  1.0000
  O2          0.91082      0.79434      0.02484  1.0000
  O2          0.85039      0.07639      0.69237  1.0000
  O2          0.76838      0.86278      0.85714  1.0000
  O2          0.05370      0.19678      0.52685  1.0000
  O2          0.09828      0.89773      0.19439  1.0000
  O2          0.89591      0.83713      0.24749  1.0000
  O2          0.10549      0.04885      0.58079  1.0000
  O2          0.91986      0.05329      0.91306  1.0000
  O2          0.05043      0.12516      0.74666  1.0000
  O2          0.84894      0.92670      0.08039  1.0000
  O2          0.03463      0.90927      0.41466  1.0000
  O2          0.89227      0.19481      0.97328  1.0000
  O2          0.75192      0.68081      0.31007  1.0000
  O2          0.27501      0.08399      0.64436  1.0000
  O2          0.06446      0.78146      0.47941  1.0000
  O2          0.18439      0.29039      0.80974  1.0000
  O2          0.67376      0.89427      0.13940  1.0000
  O2          0.17836      0.88664      0.35402  1.0000
  O2          0.68623      0.79088      0.01664  1.0000
  O2          0.07537      0.29001      0.68529  1.0000
  O2          0.77706      0.08563      0.85237  1.0000
  O2          0.26983      0.19031      0.51966  1.0000
  O2          0.87570      0.68679      0.18150  1.0000
  O2          0.29992      0.63341      0.24814  1.0000
  O2          0.32671      0.66326      0.58197  1.0000
  O2          0.30075      0.66535      0.91309  1.0000
  O2          0.65613      0.34214      0.74911  1.0000
  O3          0.60349      0.29872      0.08397  1.0000
  O2          0.64517      0.31188      0.41672  1.0000
  O2          0.36254      0.32529      0.96671  1.0000
  O3          0.65461      0.04363      0.30803  1.0000
  O2          0.92848      0.61251      0.63679  1.0000
  O2          0.58944      0.65332      0.46895  1.0000
  O2          0.30787      0.94341      0.80200  1.0000
  O2          0.01634      0.36447      0.13246  1.0000
  O2          0.28658      0.34946      0.36229  1.0000
  O2          0.02638      0.66016      0.02654  1.0000
  O2          0.60214      0.94471      0.69452  1.0000
  O2          0.65237      0.61657      0.85949  1.0000
  O2          0.92343      0.31536      0.52867  1.0000
  O2          0.35197      0.02806      0.19682  1.0000
  O3          0.74682      0.27845      0.00236  1.0000
  O2          0.66105      0.45471      0.34356  1.0000
  O2          0.50741      0.21568      0.67612  1.0000
  O2          0.19673      0.68145      0.50983  1.0000
  O2          0.28332      0.52153      0.83999  1.0000
  O2          0.44327      0.76000      0.17582  1.0000
  O2          0.27577      0.75473      0.32029  1.0000
  O2          0.45210      0.69002      0.98574  1.0000
  O2          0.20555      0.52061      0.65459  1.0000
  O2          0.67777      0.21780      0.82156  1.0000
  O2          0.50119      0.29232      0.48917  1.0000
  O2          0.74441      0.45472      0.15072  1.0000
  O3          0.76838      0.54297      0.01780  1.0000
  O2          0.42944      0.23315      0.36069  1.0000
  O2          0.72712      0.20350      0.69365  1.0000
  O2          0.18293      0.44961      0.52688  1.0000
  O2          0.51557      0.73977      0.85819  1.0000
  O2          0.23213      0.77614      0.19683  1.0000
  O3          0.50069      0.75221      0.30873  1.0000
  O2          0.23297      0.45560      0.96889  1.0000
  O2          0.18849      0.73619      0.63756  1.0000
  O2          0.44490      0.20245      0.80381  1.0000
  O2          0.71788      0.52371      0.47040  1.0000
  O2          0.76029      0.24060      0.13289  1.0000
  O2          0.21321      0.31541      0.89454  1.0000
  O3          0.66432      0.89257      0.22467  1.0000
  O2          0.06029      0.75341      0.56408  1.0000
  O2          0.72898      0.66296      0.39613  1.0000
  O2          0.29853      0.07710      0.72953  1.0000
  O2          0.88596      0.22339      0.06019  1.0000
  O2          0.28712      0.21249      0.43481  1.0000
  O2          0.87701      0.65859      0.09568  1.0000
  O2          0.74778      0.08055      0.76738  1.0000
  O2          0.66192      0.75910      0.93203  1.0000
  O2          0.06326      0.30988      0.60093  1.0000
  O2          0.21707      0.90016      0.26858  1.0000
  O2          0.57270      0.55297      0.98832  1.0000
  O2          0.42079      0.01004      0.32519  1.0000
  O2          0.94609      0.40060      0.65653  1.0000
  O2          0.37539      0.42463      0.48931  1.0000
  O2          0.53793      0.95918      0.82208  1.0000
  O2          0.00070      0.57457      0.14897  1.0000
  O2          0.51413      0.56318      0.34129  1.0000
  O2          0.00174      0.43088      0.00599  1.0000
  O2          0.38593      0.95730      0.67411  1.0000
  O2          0.42372      0.40215      0.84069  1.0000
  O2          0.93742      0.54403      0.50895  1.0000
  O2          0.56503      0.01636      0.17723  1.0000
  O2          0.55855      0.14845      0.25167  1.0000
  O2          0.80417      0.40330      0.58305  1.0000
  O2          0.57248      0.41487      0.91478  1.0000
  O2          0.39284      0.82171      0.74788  1.0000
  O2          0.13864      0.56620      0.07921  1.0000
  O2          0.37535      0.56110      0.41547  1.0000
  F           0.46641      0.89328      0.25466  1.0000
  F           0.06699      0.53390      0.58216  1.0000
  F           0.43213      0.54258      0.91335  1.0000
  F           0.52540      0.08315      0.74828  1.0000
  F           0.84505      0.42962      0.07092  1.0000
  F           0.50878      0.43284      0.41562  1.0000
