data_cif

_audit_creation_method             'generated by GULP'

_symmetry_space_group_name_H-M     'P 1'
_symmetry_Int_Tables_number        1
_symmetry_cell_setting             triclinic

_cell_length_a                       11.9316
_cell_length_b                       12.0394
_cell_length_c                       29.4783
_cell_angle_alpha                   90.1957
_cell_angle_beta                    90.6492
_cell_angle_gamma                  120.4526

loop_
_atom_site_label
_atom_site_fract_x
_atom_site_fract_y
_atom_site_fract_z
_atom_site_occupancy
  Ge          0.69960      0.37570      0.03389  1.0000
  Si          0.59604      0.30166      0.36353  1.0000
  Si          0.65188      0.27908      0.69906  1.0000
  Si          0.26508      0.59894      0.53171  1.0000
  Si          0.35825      0.66114      0.86334  1.0000
  Si          0.29993      0.69460      0.19751  1.0000
  Si          0.35495      0.69315      0.29768  1.0000
  Si          0.30618      0.60932      0.96354  1.0000
  Si          0.27137      0.65713      0.63225  1.0000
  Si          0.60174      0.28262      0.79966  1.0000
  Si          0.64428      0.35713      0.46652  1.0000
  Si          0.66858      0.30681      0.13178  1.0000
  Si          0.51992      0.40847      0.96655  1.0000
  Si          0.56880      0.09857      0.30054  1.0000
  Si          0.85962      0.44952      0.63376  1.0000
  Si          0.43395      0.56107      0.46565  1.0000
  Si          0.39420      0.87036      0.79917  1.0000
  Si          0.09052      0.52097      0.13012  1.0000
  Si          0.37882      0.51069      0.36167  1.0000
  Si          0.09340      0.57354      0.02711  1.0000
  Si          0.44395      0.86985      0.69752  1.0000
  Si          0.56659      0.45777      0.86400  1.0000
  Si          0.85753      0.39755      0.53223  1.0000
  Si          0.51062      0.10052      0.19960  1.0000
  Si          0.28374      0.38536      0.84882  1.0000
  Si          0.58029      0.89308      0.18297  1.0000
  Si          0.06500      0.67783      0.51742  1.0000
  Si          0.66544      0.58089      0.34819  1.0000
  Si          0.37177      0.07677      0.68355  1.0000
  Si          0.87988      0.28487      0.01113  1.0000
  Si          0.36120      0.27712      0.48283  1.0000
  Si          0.87602      0.59228      0.14280  1.0000
  Si          0.67816      0.08172      0.81410  1.0000
  Si          0.58655      0.68887      0.97873  1.0000
  Si          0.07036      0.37861      0.64728  1.0000
  Si          0.28304      0.89555      0.31516  1.0000
  Si          0.23841      0.33121      0.94913  1.0000
  Si          0.64031      0.89601      0.28353  1.0000
  Si          0.06084      0.72868      0.61826  1.0000
  Si          0.71705      0.64175      0.45051  1.0000
  Si          0.31789      0.07131      0.78417  1.0000
  Si          0.88546      0.23865      0.11433  1.0000
  Ge          0.32734      0.24872      0.38263  1.0000
  Si          0.89299      0.65831      0.04056  1.0000
  Si          0.72468      0.07273      0.71341  1.0000
  Si          0.64101      0.73508      0.87806  1.0000
  Si          0.05706      0.31780      0.54646  1.0000
  Si          0.22908      0.90167      0.21418  1.0000
  Si          0.95996      0.11151      0.96380  1.0000
  Si          0.85396      0.82848      0.29897  1.0000
  Si          0.12035      0.00675      0.63312  1.0000
  Si          0.00182      0.85964      0.46553  1.0000
  Si          0.10187      0.13514      0.79850  1.0000
  Si          0.82797      0.96238      0.13222  1.0000
  Si          0.10154      0.96077      0.36571  1.0000
  Si          0.83624      0.87576      0.03080  1.0000
  Si          0.00421      0.13250      0.69775  1.0000
  Si          0.85992      0.01346      0.86365  1.0000
  Si          0.11756      0.10009      0.53303  1.0000
  Si          0.94729      0.83846      0.19729  1.0000
  O2          0.91589      0.99967      0.00020  1.0000
  O2          0.97599      0.90245      0.33207  1.0000
  O2          0.04173      0.04956      0.66537  1.0000
  O2          0.04264      0.98057      0.49854  1.0000
  O2          0.98010      0.05642      0.83068  1.0000
  O2          0.90813      0.92407      0.16664  1.0000
  O2          0.31155      0.57111      0.33042  1.0000
  O2          0.39618      0.74425      0.66489  1.0000
  O2          0.22103      0.64738      0.99616  1.0000
  O2          0.64182      0.40668      0.83202  1.0000
  O2          0.55955      0.22829      0.16947  1.0000
  O2          0.72985      0.32148      0.49947  1.0000
  O3          0.56316      0.33265      0.99828  1.0000
  O2          0.73553      0.40158      0.66633  1.0000
  O2          0.64912      0.22505      0.33302  1.0000
  O2          0.38680      0.63740      0.49827  1.0000
  O2          0.21454      0.57194      0.16379  1.0000
  O2          0.31806      0.74489      0.83093  1.0000
  O2          0.11477      0.20246      0.96931  1.0000
  O2          0.76550      0.89399      0.30417  1.0000
  O2          0.05950      0.85322      0.63876  1.0000
  O2          0.84523      0.76738      0.47028  1.0000
  O2          0.19198      0.07142      0.80425  1.0000
  O2          0.88870      0.11666      0.13600  1.0000
  O3          0.18269      0.10967      0.36074  1.0000
  O2          0.90986      0.79536      0.02530  1.0000
  O2          0.84923      0.07108      0.69272  1.0000
  O2          0.76728      0.85993      0.85732  1.0000
  O2          0.05252      0.18917      0.52697  1.0000
  O2          0.10281      0.90322      0.19394  1.0000
  O2          0.90279      0.83857      0.24808  1.0000
  O2          0.09986      0.04184      0.58267  1.0000
  O2          0.91650      0.04877      0.91433  1.0000
  O2          0.04730      0.12048      0.74787  1.0000
  O2          0.84300      0.92168      0.08228  1.0000
  O2          0.04193      0.90884      0.41521  1.0000
  O2          0.89248      0.19551      0.97310  1.0000
  O2          0.76463      0.67668      0.31058  1.0000
  O2          0.27381      0.07800      0.64489  1.0000
  O2          0.06770      0.77562      0.47912  1.0000
  O2          0.18511      0.28691      0.81006  1.0000
  O2          0.67548      0.89207      0.14412  1.0000
  O2          0.19037      0.89665      0.35432  1.0000
  O2          0.68457      0.78955      0.01723  1.0000
  O2          0.07507      0.28357      0.68519  1.0000
  O2          0.77765      0.08351      0.85266  1.0000
  O2          0.27182      0.18918      0.52456  1.0000
  O2          0.87831      0.68975      0.18127  1.0000
  O2          0.29895      0.63440      0.24699  1.0000
  O2          0.32672      0.65762      0.58176  1.0000
  O2          0.30063      0.66278      0.91324  1.0000
  O2          0.65598      0.33824      0.74925  1.0000
  O3          0.60407      0.29860      0.08383  1.0000
  O2          0.64524      0.30467      0.41585  1.0000
  O2          0.36127      0.32279      0.96693  1.0000
  O2          0.65610      0.03014      0.30204  1.0000
  O2          0.92839      0.60549      0.63609  1.0000
  O2          0.59182      0.64713      0.46769  1.0000
  O2          0.30720      0.93923      0.80215  1.0000
  O2          0.01797      0.36548      0.13179  1.0000
  O3          0.28861      0.35894      0.35684  1.0000
  O2          0.02627      0.66154      0.02576  1.0000
  O2          0.60112      0.93985      0.69466  1.0000
  O2          0.65163      0.61377      0.85967  1.0000
  O2          0.92439      0.30933      0.52778  1.0000
  O2          0.35327      0.03137      0.19537  1.0000
  O3          0.74649      0.27828      0.00217  1.0000
  O2          0.66565      0.44736      0.34333  1.0000
  O2          0.50713      0.21044      0.67614  1.0000
  O2          0.19693      0.67371      0.50932  1.0000
  O2          0.28349      0.51821      0.84005  1.0000
  O2          0.44212      0.76203      0.17412  1.0000
  O2          0.27940      0.75977      0.31976  1.0000
  O2          0.45152      0.68858      0.98579  1.0000
  O2          0.20513      0.51421      0.65406  1.0000
  O2          0.67789      0.21498      0.82161  1.0000
  O2          0.50021      0.28304      0.48786  1.0000
  O2          0.74399      0.45672      0.15036  1.0000
  O3          0.76807      0.54347      0.01795  1.0000
  O3          0.44236      0.22010      0.35542  1.0000
  O2          0.72729      0.19908      0.69386  1.0000
  O2          0.18427      0.44255      0.52671  1.0000
  O2          0.51547      0.73755      0.85840  1.0000
  O2          0.22208      0.77281      0.19426  1.0000
  O2          0.51252      0.77189      0.30304  1.0000
  O2          0.23284      0.45387      0.96912  1.0000
  O2          0.18803      0.72909      0.63739  1.0000
  O2          0.44479      0.19830      0.80399  1.0000
  O2          0.70847      0.51192      0.46847  1.0000
  O2          0.76186      0.24324      0.13280  1.0000
  O2          0.21250      0.31216      0.89488  1.0000
  O2          0.65535      0.89311      0.22914  1.0000
  O2          0.06298      0.74826      0.56398  1.0000
  O2          0.72735      0.65067      0.39628  1.0000
  O2          0.29796      0.07223      0.72982  1.0000
  O2          0.88482      0.22309      0.06004  1.0000
  O3          0.27909      0.19787      0.43942  1.0000
  O2          0.87997      0.66076      0.09571  1.0000
  O2          0.74711      0.07678      0.76768  1.0000
  O2          0.66109      0.75706      0.93238  1.0000
  O2          0.06164      0.30283      0.60072  1.0000
  O2          0.21447      0.90395      0.26845  1.0000
  O2          0.57096      0.55105      0.98850  1.0000
  O2          0.42875      0.01354      0.32396  1.0000
  O2          0.94617      0.39441      0.65632  1.0000
  O2          0.38177      0.42073      0.48765  1.0000
  O2          0.53742      0.95651      0.82222  1.0000
  O2          0.99918      0.57287      0.14915  1.0000
  O2          0.52294      0.56104      0.34045  1.0000
  O2          0.00149      0.43149      0.00590  1.0000
  O2          0.38441      0.95136      0.67421  1.0000
  O2          0.42318      0.39799      0.84085  1.0000
  O2          0.93637      0.53848      0.50883  1.0000
  O2          0.57042      0.02069      0.17544  1.0000
  O2          0.56532      0.15238      0.25047  1.0000
  O2          0.80391      0.39485      0.58286  1.0000
  O2          0.57133      0.41200      0.91503  1.0000
  O2          0.39187      0.81721      0.74810  1.0000
  O2          0.13810      0.56887      0.07907  1.0000
  O2          0.38332      0.55901      0.41423  1.0000
  F           0.43205      0.89103      0.24710  1.0000
  F           0.06590      0.52620      0.58081  1.0000
  F           0.43169      0.53958      0.91284  1.0000
  F           0.52498      0.07915      0.74773  1.0000
  F           0.84568      0.43095      0.07052  1.0000
  F           0.47708      0.39602      0.40932  1.0000
