data_cif

_audit_creation_method             'generated by GULP'

_symmetry_space_group_name_H-M     'P 1'
_symmetry_Int_Tables_number        1
_symmetry_cell_setting             triclinic

_cell_length_a                       11.9312
_cell_length_b                       12.0380
_cell_length_c                       29.4808
_cell_angle_alpha                   89.9702
_cell_angle_beta                    90.0525
_cell_angle_gamma                  120.4561

loop_
_atom_site_label
_atom_site_fract_x
_atom_site_fract_y
_atom_site_fract_z
_atom_site_occupancy
  Ge          0.69960      0.37570      0.03389  1.0000
  Si          0.59402      0.30202      0.36413  1.0000
  Si          0.65182      0.27475      0.69648  1.0000
  Si          0.26531      0.59886      0.52719  1.0000
  Si          0.35739      0.66171      0.85813  1.0000
  Si          0.29962      0.69023      0.19581  1.0000
  Si          0.34894      0.67851      0.29612  1.0000
  Si          0.30826      0.61127      0.96120  1.0000
  Si          0.27123      0.65596      0.62755  1.0000
  Si          0.59587      0.26762      0.79690  1.0000
  Si          0.64596      0.35943      0.46462  1.0000
  Si          0.66861      0.30601      0.13205  1.0000
  Si          0.52173      0.40715      0.96581  1.0000
  Si          0.55822      0.09005      0.30137  1.0000
  Si          0.86093      0.44966      0.63130  1.0000
  Si          0.43577      0.56005      0.46169  1.0000
  Si          0.38388      0.86162      0.79360  1.0000
  Si          0.09153      0.52135      0.12835  1.0000
  Si          0.38587      0.50444      0.36006  1.0000
  Si          0.09254      0.57279      0.02528  1.0000
  Si          0.44201      0.86648      0.69247  1.0000
  Si          0.57413      0.45100      0.86138  1.0000
  Si          0.85605      0.39617      0.52978  1.0000
  Si          0.50851      0.09726      0.20000  1.0000
  Si          0.28793      0.38124      0.84525  1.0000
  Si          0.58070      0.89182      0.18262  1.0000
  Si          0.06460      0.67657      0.51414  1.0000
  Si          0.66853      0.57704      0.34731  1.0000
  Si          0.37253      0.07556      0.67954  1.0000
  Si          0.87955      0.28397      0.01022  1.0000
  Si          0.36494      0.28089      0.47734  1.0000
  Si          0.87623      0.59146      0.14202  1.0000
  Si          0.66915      0.06458      0.81124  1.0000
  Si          0.59100      0.69213      0.97990  1.0000
  Si          0.07069      0.37761      0.64382  1.0000
  Si          0.27383      0.87906      0.31335  1.0000
  Si          0.23837      0.32699      0.94739  1.0000
  Si          0.63358      0.88964      0.28343  1.0000
  Si          0.06173      0.72896      0.61481  1.0000
  Si          0.71682      0.63828      0.44774  1.0000
  Si          0.31132      0.06463      0.77982  1.0000
  Si          0.88603      0.23900      0.11349  1.0000
  Si          0.31067      0.22808      0.37664  1.0000
  Si          0.89271      0.65840      0.03962  1.0000
  Si          0.72243      0.06599      0.71018  1.0000
  Ge          0.62501      0.71397      0.87987  1.0000
  Si          0.05673      0.31768      0.54313  1.0000
  Si          0.22675      0.89518      0.21286  1.0000
  Si          0.95557      0.10883      0.96117  1.0000
  Si          0.84964      0.82482      0.29713  1.0000
  Si          0.12347      0.00835      0.62958  1.0000
  Si          0.99757      0.85706      0.46373  1.0000
  Si          0.09786      0.13132      0.79602  1.0000
  Si          0.83092      0.96414      0.13156  1.0000
  Si          0.09356      0.94697      0.36282  1.0000
  Si          0.83586      0.87564      0.03066  1.0000
  Si          0.00443      0.13114      0.69489  1.0000
  Si          0.85207      0.99898      0.86206  1.0000
  Si          0.11700      0.09985      0.52891  1.0000
  Si          0.94742      0.83732      0.19586  1.0000
  O2          0.91051      0.99673      0.99793  1.0000
  O2          0.97241      0.90333      0.32956  1.0000
  O2          0.04515      0.04978      0.66289  1.0000
  O2          0.03762      0.97766      0.49640  1.0000
  O2          0.97714      0.05711      0.82899  1.0000
  O2          0.91129      0.92475      0.16506  1.0000
  O2          0.30936      0.55250      0.32705  1.0000
  O2          0.39633      0.74290      0.65945  1.0000
  O2          0.21971      0.64599      0.99329  1.0000
  O2          0.63974      0.38714      0.83123  1.0000
  O2          0.55952      0.22689      0.17027  1.0000
  O2          0.72785      0.32007      0.49801  1.0000
  O3          0.56329      0.33230      0.99867  1.0000
  O2          0.73711      0.40015      0.66466  1.0000
  O2          0.63452      0.21492      0.33387  1.0000
  O2          0.38695      0.63712      0.49333  1.0000
  O2          0.21580      0.57048      0.16125  1.0000
  O2          0.30425      0.73462      0.82551  1.0000
  O2          0.11149      0.20047      0.96696  1.0000
  O2          0.75883      0.88748      0.30354  1.0000
  O2          0.06133      0.85435      0.63481  1.0000
  O2          0.84202      0.76603      0.46807  1.0000
  O2          0.18545      0.06457      0.80040  1.0000
  O2          0.89025      0.11803      0.13576  1.0000
  O2          0.18531      0.10049      0.35613  1.0000
  O2          0.91071      0.79614      0.02456  1.0000
  O2          0.84927      0.06726      0.68964  1.0000
  O3          0.77055      0.85002      0.85764  1.0000
  O2          0.05312      0.18973      0.52343  1.0000
  O2          0.10266      0.89940      0.19247  1.0000
  O2          0.90115      0.84003      0.24628  1.0000
  O2          0.10580      0.04724      0.57933  1.0000
  O2          0.91417      0.05051      0.91179  1.0000
  O2          0.04542      0.12192      0.74551  1.0000
  O2          0.84939      0.92757      0.08147  1.0000
  O2          0.04011      0.91109      0.41338  1.0000
  O2          0.89148      0.19541      0.97191  1.0000
  O2          0.76729      0.67298      0.30855  1.0000
  O2          0.27677      0.07878      0.64073  1.0000
  O2          0.06595      0.77472      0.47595  1.0000
  O2          0.18837      0.28304      0.80771  1.0000
  O2          0.67816      0.89269      0.14395  1.0000
  O2          0.17516      0.87635      0.35182  1.0000
  O2          0.68207      0.78395      0.02151  1.0000
  O2          0.07474      0.28214      0.68181  1.0000
  O2          0.76247      0.06228      0.85043  1.0000
  O2          0.26905      0.18381      0.51611  1.0000
  O2          0.87757      0.68852      0.18031  1.0000
  O2          0.29503      0.62612      0.24499  1.0000
  O2          0.32707      0.65685      0.57692  1.0000
  O2          0.30635      0.66054      0.91011  1.0000
  O2          0.65214      0.32955      0.74697  1.0000
  O3          0.60435      0.29827      0.08433  1.0000
  O2          0.64987      0.30390      0.41461  1.0000
  O2          0.36266      0.32270      0.96526  1.0000
  O2          0.64502      0.02082      0.30310  1.0000
  O2          0.92949      0.60567      0.63364  1.0000
  O2          0.59312      0.64814      0.46465  1.0000
  O2          0.29623      0.92953      0.79657  1.0000
  O2          0.01875      0.36589      0.12985  1.0000
  O2          0.29913      0.34806      0.35706  1.0000
  O2          0.02504      0.66019      0.02364  1.0000
  O2          0.59941      0.93609      0.69005  1.0000
  O3          0.66326      0.60250      0.85524  1.0000
  O2          0.92315      0.30795      0.52557  1.0000
  O2          0.35142      0.02783      0.19544  1.0000
  O3          0.74703      0.27915      0.00188  1.0000
  O2          0.66906      0.44363      0.34038  1.0000
  O2          0.50920      0.20859      0.67259  1.0000
  O2          0.19755      0.67457      0.50530  1.0000
  O2          0.28903      0.51494      0.83859  1.0000
  O2          0.44394      0.75995      0.17342  1.0000
  O2          0.27220      0.74424      0.31879  1.0000
  O2          0.45209      0.68851      0.98346  1.0000
  O2          0.20549      0.51314      0.65002  1.0000
  O2          0.67060      0.19869      0.81808  1.0000
  O2          0.50027      0.28369      0.48565  1.0000
  O2          0.74416      0.45581      0.15015  1.0000
  O3          0.76730      0.54376      0.01777  1.0000
  O2          0.43698      0.22624      0.35805  1.0000
  O2          0.72742      0.19476      0.69177  1.0000
  O2          0.18319      0.44258      0.52254  1.0000
  O3          0.51109      0.74328      0.85159  1.0000
  O2          0.22214      0.76867      0.19197  1.0000
  O2          0.50581      0.76212      0.30164  1.0000
  O2          0.24331      0.45666      0.96465  1.0000
  O2          0.18897      0.72913      0.63320  1.0000
  O2          0.43823      0.18794      0.80098  1.0000
  O2          0.71827      0.51519      0.46861  1.0000
  O2          0.76237      0.24314      0.13266  1.0000
  O2          0.22421      0.31554      0.89323  1.0000
  O2          0.65300      0.89188      0.22908  1.0000
  O2          0.06207      0.74720      0.56048  1.0000
  O2          0.73899      0.65380      0.39344  1.0000
  O2          0.29572      0.07075      0.72550  1.0000
  O2          0.88371      0.22195      0.05925  1.0000
  O2          0.29083      0.20962      0.43088  1.0000
  O2          0.88087      0.66035      0.09485  1.0000
  O2          0.73863      0.06130      0.76438  1.0000
  O3          0.67362      0.76899      0.93671  1.0000
  O2          0.06230      0.30225      0.59732  1.0000
  O2          0.20564      0.88875      0.26711  1.0000
  O2          0.56776      0.54912      0.98679  1.0000
  O2          0.41539      0.00187      0.32353  1.0000
  O2          0.94673      0.39355      0.65342  1.0000
  O2          0.37840      0.41962      0.48506  1.0000
  O2          0.52432      0.94390      0.81786  1.0000
  O2          0.99978      0.57246      0.14799  1.0000
  O2          0.52870      0.56267      0.33736  1.0000
  O2          0.00310      0.43021      0.00480  1.0000
  O2          0.38393      0.94970      0.66967  1.0000
  O2          0.42958      0.39868      0.83929  1.0000
  O2          0.93754      0.53684      0.50590  1.0000
  O2          0.56940      0.01878      0.17540  1.0000
  O2          0.55924      0.14576      0.25114  1.0000
  O2          0.80454      0.39547      0.58079  1.0000
  O2          0.57256      0.40984      0.91427  1.0000
  O2          0.38562      0.81022      0.74272  1.0000
  O2          0.13874      0.57029      0.07701  1.0000
  O2          0.38333      0.55766      0.41049  1.0000
  F           0.42531      0.88414      0.24669  1.0000
  F           0.06732      0.52680      0.57790  1.0000
  F           0.47511      0.56988      0.90650  1.0000
  F           0.51795      0.07150      0.74363  1.0000
  F           0.84609      0.43106      0.06963  1.0000
  F           0.51694      0.42971      0.41123  1.0000
