data_cif

_audit_creation_method             'generated by GULP'

_symmetry_space_group_name_H-M     'P 1'
_symmetry_Int_Tables_number        1
_symmetry_cell_setting             triclinic

_cell_length_a                       11.8982
_cell_length_b                       12.0025
_cell_length_c                       29.4782
_cell_angle_alpha                   90.3712
_cell_angle_beta                    89.9432
_cell_angle_gamma                  119.8696

loop_
_atom_site_label
_atom_site_fract_x
_atom_site_fract_y
_atom_site_fract_z
_atom_site_occupancy
  Ge          0.69960      0.37570      0.03389  1.0000
  Si          0.59174      0.30811      0.36365  1.0000
  Si          0.65854      0.28947      0.69487  1.0000
  Si          0.26407      0.60310      0.52917  1.0000
  Si          0.36320      0.66298      0.86318  1.0000
  Si          0.29583      0.68964      0.19674  1.0000
  Si          0.34773      0.68391      0.29716  1.0000
  Si          0.30843      0.61008      0.96327  1.0000
  Si          0.26313      0.65669      0.62948  1.0000
  Si          0.60803      0.28595      0.79796  1.0000
  Si          0.64562      0.36561      0.46397  1.0000
  Si          0.66458      0.30538      0.13184  1.0000
  Si          0.52252      0.40893      0.96580  1.0000
  Si          0.55410      0.09493      0.30062  1.0000
  Si          0.85759      0.46243      0.63007  1.0000
  Si          0.43629      0.56627      0.46318  1.0000
  Si          0.39999      0.87097      0.79822  1.0000
  Si          0.08754      0.51742      0.13007  1.0000
  Si          0.38500      0.51132      0.36153  1.0000
  Si          0.09312      0.57131      0.02709  1.0000
  Si          0.44593      0.86357      0.69422  1.0000
  Si          0.56896      0.45917      0.86326  1.0000
  Si          0.85631      0.40512      0.52898  1.0000
  Si          0.50243      0.09776      0.19921  1.0000
  Si          0.28645      0.38639      0.84831  1.0000
  Si          0.57477      0.89052      0.18277  1.0000
  Si          0.06509      0.68356      0.51429  1.0000
  Si          0.66732      0.58351      0.34793  1.0000
  Si          0.37617      0.07847      0.68030  1.0000
  Si          0.88147      0.28443      0.01085  1.0000
  Si          0.36517      0.28676      0.47767  1.0000
  Si          0.87166      0.58909      0.14321  1.0000
  Si          0.68686      0.08352      0.81533  1.0000
  Si          0.58833      0.68945      0.97798  1.0000
  Si          0.06093      0.38093      0.64580  1.0000
  Si          0.27176      0.88568      0.31344  1.0000
  Si          0.24114      0.33174      0.94887  1.0000
  Si          0.63017      0.89327      0.28347  1.0000
  Si          0.06012      0.73824      0.61470  1.0000
  Si          0.71733      0.64522      0.44852  1.0000
  Si          0.32033      0.07250      0.78257  1.0000
  Si          0.88292      0.23704      0.11409  1.0000
  Si          0.30867      0.23442      0.37691  1.0000
  Si          0.89149      0.65651      0.04104  1.0000
  Ge          0.71041      0.07504      0.71514  1.0000
  Si          0.64567      0.73715      0.87724  1.0000
  Si          0.05509      0.32361      0.54471  1.0000
  Si          0.22266      0.89645      0.21286  1.0000
  Si          0.96442      0.11138      0.96350  1.0000
  Si          0.84769      0.82973      0.29780  1.0000
  Si          0.12590      0.01815      0.63089  1.0000
  Si          0.99755      0.86384      0.46434  1.0000
  Si          0.10387      0.14017      0.79661  1.0000
  Si          0.82374      0.96039      0.13151  1.0000
  Si          0.09140      0.95450      0.36351  1.0000
  Si          0.83558      0.87515      0.03006  1.0000
  Si          0.99723      0.13493      0.69695  1.0000
  Si          0.86475      0.01459      0.86413  1.0000
  Si          0.11919      0.10700      0.52979  1.0000
  Si          0.94253      0.83617      0.19636  1.0000
  O2          0.91865      0.99898      0.99978  1.0000
  O2          0.96970      0.90949      0.33038  1.0000
  O2          0.05167      0.06446      0.66388  1.0000
  O2          0.03789      0.98348      0.49789  1.0000
  O2          0.98320      0.06073      0.82957  1.0000
  O2          0.90418      0.92057      0.16483  1.0000
  O2          0.30838      0.55998      0.32878  1.0000
  O2          0.38494      0.73547      0.66321  1.0000
  O2          0.22129      0.64672      0.99619  1.0000
  O2          0.64399      0.40785      0.83049  1.0000
  O2          0.55340      0.22605      0.16911  1.0000
  O2          0.72969      0.32736      0.49682  1.0000
  O3          0.56562      0.33327      0.99762  1.0000
  O2          0.73201      0.41591      0.66277  1.0000
  O2          0.63146      0.22062      0.33268  1.0000
  O2          0.38665      0.64172      0.49582  1.0000
  O2          0.21131      0.56731      0.16325  1.0000
  O2          0.32367      0.74716      0.83057  1.0000
  O2          0.11841      0.20307      0.96931  1.0000
  O2          0.75625      0.89267      0.30377  1.0000
  O2          0.06093      0.86413      0.63529  1.0000
  O2          0.84245      0.77266      0.46868  1.0000
  O2          0.19592      0.07643      0.80218  1.0000
  O2          0.88462      0.11424      0.13583  1.0000
  O2          0.18234      0.10759      0.35679  1.0000
  O2          0.90920      0.79370      0.02550  1.0000
  O3          0.84729      0.06721      0.69300  1.0000
  O2          0.77358      0.86118      0.85714  1.0000
  O2          0.05373      0.19624      0.52486  1.0000
  O2          0.09735      0.89853      0.19232  1.0000
  O2          0.89911      0.84297      0.24697  1.0000
  O2          0.11392      0.05879      0.58038  1.0000
  O2          0.92528      0.04799      0.91414  1.0000
  O2          0.05359      0.12992      0.74618  1.0000
  O2          0.83809      0.92105      0.08120  1.0000
  O2          0.03883      0.91940      0.41418  1.0000
  O2          0.89557      0.19532      0.97269  1.0000
  O2          0.76595      0.67871      0.30943  1.0000
  O2          0.27873      0.08134      0.64272  1.0000
  O2          0.06675      0.78104      0.47577  1.0000
  O2          0.18837      0.29041      0.80972  1.0000
  O2          0.67173      0.89028      0.14399  1.0000
  O2          0.17392      0.88418      0.35216  1.0000
  O2          0.68523      0.79023      0.01602  1.0000
  O2          0.06126      0.28704      0.68460  1.0000
  O2          0.77708      0.08171      0.85693  1.0000
  O2          0.26999      0.18959      0.51607  1.0000
  O2          0.87316      0.68658      0.18181  1.0000
  O2          0.29360      0.62904      0.24624  1.0000
  O2          0.32315      0.66049      0.57926  1.0000
  O2          0.30374      0.66452      0.91307  1.0000
  O2          0.65959      0.33791      0.74716  1.0000
  O3          0.60255      0.29929      0.08381  1.0000
  O2          0.64877      0.30926      0.41385  1.0000
  O2          0.36443      0.32333      0.96603  1.0000
  O2          0.64131      0.02538      0.30247  1.0000
  O2          0.92577      0.61790      0.63241  1.0000
  O2          0.59310      0.65459      0.46590  1.0000
  O2          0.31467      0.94279      0.80041  1.0000
  O2          0.01451      0.36219      0.13174  1.0000
  O2          0.29774      0.35553      0.35808  1.0000
  O2          0.02488      0.65900      0.02606  1.0000
  O3          0.59825      0.92567      0.68959  1.0000
  O2          0.65433      0.61440      0.85839  1.0000
  O2          0.92405      0.31653      0.52552  1.0000
  O2          0.34553      0.02808      0.19482  1.0000
  O3          0.74862      0.27897      0.00196  1.0000
  O2          0.66700      0.44939      0.34036  1.0000
  O2          0.51056      0.21223      0.67536  1.0000
  O2          0.19728      0.67899      0.50618  1.0000
  O2          0.28902      0.52103      0.83977  1.0000
  O2          0.43915      0.75842      0.17395  1.0000
  O2          0.27109      0.75132      0.31938  1.0000
  O2          0.45276      0.68923      0.98523  1.0000
  O2          0.19643      0.51454      0.65136  1.0000
  O2          0.68231      0.21675      0.81997  1.0000
  O2          0.50103      0.28947      0.48544  1.0000
  O2          0.73973      0.45443      0.15076  1.0000
  O3          0.76737      0.54330      0.01844  1.0000
  O2          0.43491      0.23272      0.35768  1.0000
  O3          0.73947      0.21763      0.68743  1.0000
  O2          0.18308      0.44718      0.52520  1.0000
  O2          0.52032      0.74044      0.85789  1.0000
  O2          0.21833      0.76877      0.19259  1.0000
  O2          0.50414      0.76717      0.30234  1.0000
  O2          0.23600      0.45500      0.96899  1.0000
  O2          0.18500      0.73535      0.63455  1.0000
  O2          0.45237      0.19488      0.79986  1.0000
  O2          0.71804      0.52109      0.46866  1.0000
  O2          0.75823      0.24143      0.13260  1.0000
  O2          0.21555      0.31427      0.89470  1.0000
  O2          0.64833      0.89204      0.22911  1.0000
  O2          0.06320      0.75701      0.56035  1.0000
  O2          0.73778      0.65977      0.39418  1.0000
  O2          0.30793      0.07077      0.72835  1.0000
  O2          0.88479      0.22217      0.05981  1.0000
  O2          0.29080      0.21627      0.43114  1.0000
  O2          0.87676      0.65842      0.09619  1.0000
  O3          0.76453      0.08023      0.77195  1.0000
  O2          0.66356      0.75720      0.93155  1.0000
  O2          0.05357      0.30609      0.59891  1.0000
  O2          0.20266      0.89354      0.26714  1.0000
  O2          0.57232      0.55120      0.98766  1.0000
  O2          0.41239      0.00863      0.32321  1.0000
  O2          0.94136      0.40594      0.65365  1.0000
  O2          0.37930      0.42588      0.48597  1.0000
  O2          0.54212      0.96041      0.82023  1.0000
  O2          0.99498      0.56913      0.14935  1.0000
  O2          0.52719      0.56944      0.33853  1.0000
  O2          0.00303      0.43018      0.00568  1.0000
  O2          0.39502      0.95620      0.67266  1.0000
  O2          0.42583      0.39698      0.84047  1.0000
  O2          0.93797      0.54527      0.50548  1.0000
  O2          0.56290      0.01731      0.17506  1.0000
  O2          0.55317      0.14828      0.25025  1.0000
  O2          0.80272      0.40644      0.57956  1.0000
  O2          0.57500      0.41309      0.91408  1.0000
  O2          0.39920      0.82161      0.74686  1.0000
  O2          0.13614      0.56527      0.07897  1.0000
  O2          0.38298      0.56469      0.41218  1.0000
  F           0.42188      0.88702      0.24683  1.0000
  F           0.06473      0.53620      0.57828  1.0000
  F           0.43543      0.54139      0.91189  1.0000
  F           0.56429      0.07791      0.74169  1.0000
  F           0.84413      0.42920      0.07053  1.0000
  F           0.51638      0.43556      0.41169  1.0000
