data_cif

_audit_creation_method             'generated by GULP'

_symmetry_space_group_name_H-M     'P 1'
_symmetry_Int_Tables_number        1
_symmetry_cell_setting             triclinic

_cell_length_a                       11.9345
_cell_length_b                       12.0232
_cell_length_c                       29.4406
_cell_angle_alpha                   89.9861
_cell_angle_beta                    90.3771
_cell_angle_gamma                  120.1089

loop_
_atom_site_label
_atom_site_fract_x
_atom_site_fract_y
_atom_site_fract_z
_atom_site_occupancy
  Ge          0.69960      0.37570      0.03389  1.0000
  Si          0.59866      0.30741      0.36487  1.0000
  Si          0.65820      0.28578      0.69830  1.0000
  Si          0.27308      0.60449      0.53121  1.0000
  Si          0.36155      0.66311      0.86274  1.0000
  Si          0.29881      0.69094      0.19696  1.0000
  Si          0.35261      0.68431      0.29746  1.0000
  Si          0.30708      0.60951      0.96296  1.0000
  Si          0.27700      0.66499      0.63136  1.0000
  Si          0.60527      0.28542      0.79917  1.0000
  Si          0.64872      0.35938      0.46600  1.0000
  Si          0.66737      0.30512      0.13207  1.0000
  Si          0.52017      0.40841      0.96638  1.0000
  Si          0.55993      0.09501      0.30154  1.0000
  Si          0.86599      0.45887      0.63307  1.0000
  Si          0.43709      0.56128      0.46415  1.0000
  Si          0.39950      0.87393      0.79853  1.0000
  Si          0.09008      0.51886      0.12981  1.0000
  Si          0.39114      0.51149      0.36207  1.0000
  Si          0.09322      0.57274      0.02660  1.0000
  Si          0.45090      0.87566      0.69668  1.0000
  Si          0.56867      0.45929      0.86366  1.0000
  Si          0.86059      0.40119      0.53157  1.0000
  Si          0.50615      0.09803      0.19998  1.0000
  Si          0.28654      0.38725      0.84828  1.0000
  Si          0.57846      0.89178      0.18307  1.0000
  Si          0.07077      0.67926      0.51563  1.0000
  Si          0.67435      0.58400      0.34996  1.0000
  Si          0.37943      0.08382      0.68328  1.0000
  Si          0.88081      0.28541      0.01079  1.0000
  Si          0.36861      0.28226      0.47775  1.0000
  Si          0.87460      0.58927      0.14267  1.0000
  Si          0.68151      0.08391      0.81325  1.0000
  Si          0.58632      0.68853      0.97816  1.0000
  Si          0.07589      0.38746      0.64779  1.0000
  Si          0.27759      0.88535      0.31418  1.0000
  Si          0.23952      0.33155      0.94885  1.0000
  Si          0.63505      0.89374      0.28398  1.0000
  Si          0.06640      0.73668      0.61583  1.0000
  Si          0.71697      0.63763      0.45116  1.0000
  Si          0.32313      0.07561      0.78393  1.0000
  Si          0.88512      0.23795      0.11418  1.0000
  Si          0.31601      0.23422      0.37652  1.0000
  Si          0.89211      0.65726      0.04036  1.0000
  Si          0.73029      0.07769      0.71241  1.0000
  Si          0.64371      0.73683      0.87742  1.0000
  Si          0.06356      0.32613      0.54720  1.0000
  Si          0.22588      0.89698      0.21354  1.0000
  Si          0.96138      0.11226      0.96300  1.0000
  Si          0.85167      0.82926      0.29739  1.0000
  Si          0.13039      0.01663      0.63203  1.0000
  Ge          0.00044      0.86077      0.46507  1.0000
  Si          0.10595      0.13841      0.79789  1.0000
  Si          0.82618      0.96115      0.13130  1.0000
  Si          0.09791      0.95593      0.36201  1.0000
  Si          0.83456      0.87495      0.02977  1.0000
  Si          0.01065      0.13948      0.69710  1.0000
  Si          0.86278      0.01500      0.86286  1.0000
  Si          0.12378      0.10826      0.53122  1.0000
  Si          0.94498      0.83569      0.19595  1.0000
  O2          0.91554      0.99835      0.99888  1.0000
  O2          0.97916      0.91222      0.32720  1.0000
  O2          0.05036      0.05930      0.66400  1.0000
  O3          0.03646      0.98803      0.50004  1.0000
  O2          0.98319      0.05832      0.82974  1.0000
  O2          0.90798      0.92098      0.16407  1.0000
  O2          0.31482      0.55986      0.32892  1.0000
  O2          0.40119      0.75079      0.66389  1.0000
  O2          0.22080      0.64697      0.99557  1.0000
  O2          0.64455      0.40852      0.83170  1.0000
  O2          0.55741      0.22650      0.16979  1.0000
  O2          0.73283      0.32202      0.49962  1.0000
  O3          0.56375      0.33297      0.99843  1.0000
  O2          0.74161      0.40970      0.66595  1.0000
  O2          0.63801      0.22066      0.33376  1.0000
  O2          0.39228      0.63960      0.49701  1.0000
  O2          0.21414      0.56936      0.16317  1.0000
  O2          0.32256      0.74790      0.83020  1.0000
  O2          0.11555      0.20255      0.96877  1.0000
  O2          0.76076      0.89192      0.30417  1.0000
  O2          0.06642      0.86237      0.63600  1.0000
  O3          0.83689      0.76223      0.47297  1.0000
  O2          0.19662      0.07512      0.80400  1.0000
  O2          0.88746      0.11505      0.13577  1.0000
  O2          0.19151      0.10896      0.35482  1.0000
  O2          0.90868      0.79447      0.02519  1.0000
  O2          0.85596      0.07712      0.69195  1.0000
  O2          0.77064      0.86165      0.85700  1.0000
  O2          0.06233      0.20049      0.52725  1.0000
  O2          0.10016      0.89939      0.19351  1.0000
  O2          0.89507      0.83752      0.24580  1.0000
  O2          0.11947      0.05824      0.58167  1.0000
  O2          0.91940      0.05123      0.91340  1.0000
  O2          0.05308      0.12478      0.74710  1.0000
  O2          0.83857      0.92199      0.08086  1.0000
  O3          0.03972      0.92313      0.41142  1.0000
  O2          0.89395      0.19647      0.97271  1.0000
  O2          0.77272      0.67965      0.31155  1.0000
  O2          0.28206      0.08543      0.64482  1.0000
  O3          0.07648      0.77459      0.47612  1.0000
  O2          0.18823      0.28960      0.80974  1.0000
  O2          0.67472      0.89146      0.14439  1.0000
  O2          0.18009      0.88421      0.35274  1.0000
  O2          0.68379      0.78892      0.01636  1.0000
  O2          0.07960      0.29137      0.68583  1.0000
  O2          0.78022      0.08486      0.85181  1.0000
  O2          0.27360      0.18473      0.51606  1.0000
  O2          0.87717      0.68674      0.18112  1.0000
  O2          0.29676      0.62969      0.24657  1.0000
  O2          0.33384      0.66296      0.58120  1.0000
  O2          0.30273      0.66434      0.91265  1.0000
  O2          0.66035      0.34240      0.74878  1.0000
  O3          0.60399      0.29833      0.08412  1.0000
  O2          0.65335      0.30581      0.41556  1.0000
  O2          0.36202      0.32295      0.96691  1.0000
  O2          0.64680      0.02546      0.30337  1.0000
  O2          0.93487      0.61480      0.63504  1.0000
  O2          0.59304      0.64742      0.46727  1.0000
  O2          0.31245      0.94307      0.80174  1.0000
  O2          0.01709      0.36349      0.13170  1.0000
  O2          0.30541      0.35576      0.35803  1.0000
  O2          0.02552      0.66059      0.02549  1.0000
  O2          0.60777      0.94541      0.69357  1.0000
  O2          0.65397      0.61501      0.85927  1.0000
  O2          0.92981      0.31459      0.52874  1.0000
  O2          0.34927      0.02881      0.19565  1.0000
  O3          0.74772      0.27922      0.00201  1.0000
  O2          0.67391      0.45000      0.34235  1.0000
  O2          0.51402      0.21731      0.67571  1.0000
  O2          0.20497      0.67902      0.50880  1.0000
  O2          0.28700      0.52074      0.83958  1.0000
  O2          0.44210      0.75991      0.17446  1.0000
  O2          0.27664      0.75086      0.32025  1.0000
  O2          0.45124      0.68823      0.98541  1.0000
  O2          0.20943      0.52299      0.65429  1.0000
  O2          0.68101      0.21704      0.82106  1.0000
  O2          0.50325      0.28338      0.48644  1.0000
  O2          0.74304      0.45442      0.15070  1.0000
  O3          0.76798      0.54341      0.01786  1.0000
  O2          0.44246      0.23311      0.35811  1.0000
  O2          0.73267      0.20449      0.69302  1.0000
  O2          0.19061      0.44910      0.52716  1.0000
  O2          0.51840      0.73913      0.85770  1.0000
  O2          0.22167      0.77006      0.19302  1.0000
  O2          0.50902      0.76711      0.30271  1.0000
  O2          0.23354      0.45414      0.96875  1.0000
  O2          0.19490      0.73910      0.63467  1.0000
  O2          0.44883      0.20175      0.80383  1.0000
  O2          0.71976      0.51414      0.47119  1.0000
  O2          0.76105      0.24168      0.13299  1.0000
  O2          0.21546      0.31388      0.89454  1.0000
  O2          0.65236      0.89370      0.22958  1.0000
  O2          0.06439      0.75303      0.56115  1.0000
  O2          0.74455      0.65718      0.39683  1.0000
  O2          0.30471      0.07853      0.72958  1.0000
  O2          0.88544      0.22334      0.05985  1.0000
  O2          0.29557      0.21198      0.43079  1.0000
  O2          0.87847      0.65853      0.09560  1.0000
  O2          0.75122      0.07975      0.76675  1.0000
  O2          0.66168      0.75732      0.93180  1.0000
  O2          0.06794      0.31130      0.60152  1.0000
  O2          0.20753      0.89327      0.26791  1.0000
  O2          0.57083      0.55064      0.98822  1.0000
  O2          0.41858      0.00821      0.32422  1.0000
  O2          0.95156      0.40348      0.65644  1.0000
  O2          0.37928      0.41962      0.48625  1.0000
  O2          0.54165      0.95874      0.82168  1.0000
  O2          0.99809      0.57022      0.14899  1.0000
  O2          0.53488      0.57130      0.34060  1.0000
  O2          0.00195      0.43149      0.00546  1.0000
  O2          0.39228      0.95858      0.67377  1.0000
  O2          0.42625      0.40041      0.84042  1.0000
  O2          0.94320      0.54041      0.50726  1.0000
  O2          0.56583      0.01804      0.17562  1.0000
  O2          0.55818      0.14839      0.25108  1.0000
  O2          0.80982      0.40354      0.58246  1.0000
  O2          0.57210      0.41233      0.91478  1.0000
  O2          0.39878      0.82209      0.74739  1.0000
  O2          0.13737      0.56689      0.07859  1.0000
  O2          0.38511      0.56146      0.41287  1.0000
  F           0.42581      0.88731      0.24785  1.0000
  F           0.07203      0.53528      0.58078  1.0000
  F           0.43322      0.54093      0.91271  1.0000
  F           0.53031      0.08341      0.74752  1.0000
  F           0.84477      0.42970      0.07047  1.0000
  F           0.52083      0.43301      0.41334  1.0000
