data_cif

_audit_creation_method             'generated by GULP'

_symmetry_space_group_name_H-M     'P 1'
_symmetry_Int_Tables_number        1
_symmetry_cell_setting             triclinic

_cell_length_a                       11.9415
_cell_length_b                       11.9118
_cell_length_c                       29.4711
_cell_angle_alpha                   90.0000
_cell_angle_beta                    90.0004
_cell_angle_gamma                  119.4199

loop_
_atom_site_label
_atom_site_fract_x
_atom_site_fract_y
_atom_site_fract_z
_atom_site_occupancy
  Si          0.69960      0.37570      0.03389  1.0000
  Si          0.62291      0.31745      0.36794  1.0000
  Si          0.67879      0.27701      0.69775  1.0000
  Si          0.30997      0.60543      0.53390  1.0000
  Si          0.38664      0.66372      0.86794  1.0000
  Si          0.33076      0.70416      0.19775  1.0000
  Si          0.38396      0.69958      0.29841  1.0000
  Si          0.32825      0.61403      0.97012  1.0000
  Si          0.29975      0.65452      0.63556  1.0000
  Si          0.62560      0.28161      0.79841  1.0000
  Si          0.68131      0.36713      0.47012  1.0000
  Si          0.70980      0.32663      0.13555  1.0000
  Ge          0.53167      0.42336      0.96592  1.0000
  Si          0.58466      0.10874      0.30141  1.0000
  Si          0.89037      0.45045      0.63392  1.0000
  Ge          0.47791      0.55782      0.46593  1.0000
  Si          0.42490      0.87244      0.80142  1.0000
  Si          0.11918      0.53071      0.13393  1.0000
  Si          0.41185      0.52823      0.36689  1.0000
  Si          0.11390      0.57834      0.03279  1.0000
  Si          0.47334      0.86470      0.70007  1.0000
  Si          0.59771      0.45295      0.86689  1.0000
  Si          0.89566      0.40283      0.53278  1.0000
  Si          0.53620      0.11647      0.20007  1.0000
  Si          0.31030      0.38141      0.85413  1.0000
  Si          0.60828      0.90603      0.18503  1.0000
  Si          0.10496      0.68201      0.51990  1.0000
  Si          0.69925      0.59977      0.35414  1.0000
  Si          0.40127      0.07514      0.68503  1.0000
  Si          0.90463      0.29915      0.01990  1.0000
  Si          0.39835      0.28442      0.48885  1.0000
  Si          0.91145      0.60375      0.14937  1.0000
  Si          0.70298      0.07961      0.81482  1.0000
  Si          0.61121      0.69675      0.98885  1.0000
  Si          0.09809      0.37741      0.64937  1.0000
  Si          0.30657      0.90158      0.31481  1.0000
  Si          0.25276      0.32498      0.95639  1.0000
  Si          0.66411      0.90806      0.28568  1.0000
  Si          0.09058      0.72774      0.62042  1.0000
  Si          0.75682      0.65619      0.45639  1.0000
  Si          0.34544      0.07313      0.78568  1.0000
  Si          0.91898      0.25342      0.12042  1.0000
  Si          0.33804      0.24692      0.38562  1.0000
  Si          0.91268      0.65636      0.04846  1.0000
  Si          0.75086      0.06647      0.71432  1.0000
  Si          0.67151      0.73426      0.88562  1.0000
  Si          0.09687      0.32478      0.54846  1.0000
  Si          0.25868      0.91470      0.21432  1.0000
  Si          0.96843      0.11636      0.96936  1.0000
  Si          0.88301      0.84624      0.30323  1.0000
  Si          0.15139      0.00693      0.63675  1.0000
  Si          0.04115      0.86480      0.46936  1.0000
  Si          0.12654      0.13494      0.80323  1.0000
  Si          0.85816      0.97423      0.13675  1.0000
  Si          0.12591      0.96552      0.36839  1.0000
  Si          0.85556      0.88012      0.03629  1.0000
  Si          0.03144      0.13111      0.70198  1.0000
  Si          0.88365      0.01566      0.86839  1.0000
  Si          0.15400      0.10104      0.53629  1.0000
  Si          0.97810      0.85005      0.20198  1.0000
  O2          0.93417      0.99961      0.00329  1.0000
  O2          0.00046      0.92470      0.33766  1.0000
  O2          0.07686      0.04867      0.67216  1.0000
  O2          0.07542      0.98155      0.50329  1.0000
  O2          0.00909      0.05647      0.83766  1.0000
  O2          0.93267      0.93248      0.17216  1.0000
  O2          0.34208      0.57202      0.32901  1.0000
  O2          0.42240      0.73760      0.66863  1.0000
  O2          0.23917      0.65305      0.99993  1.0000
  O2          0.66748      0.40917      0.82900  1.0000
  O2          0.58714      0.24356      0.16862  1.0000
  O2          0.77040      0.32811      0.49992  1.0000
  O3          0.58057      0.33715      0.00267  1.0000
  O2          0.76213      0.39932      0.66515  1.0000
  O2          0.65949      0.23324      0.33462  1.0000
  O3          0.42901      0.64400      0.50268  1.0000
  O2          0.24742      0.58185      0.16515  1.0000
  O2          0.35006      0.74794      0.83463  1.0000
  O2          0.12017      0.20766      0.97465  1.0000
  O2          0.79126      0.91000      0.30623  1.0000
  O2          0.08859      0.85292      0.64133  1.0000
  O2          0.88942      0.77349      0.47465  1.0000
  O2          0.21830      0.07119      0.80623  1.0000
  O2          0.92096      0.12824      0.14133  1.0000
  O2          0.21542      0.12025      0.36459  1.0000
  O2          0.91128      0.78270      0.02840  1.0000
  O2          0.87782      0.06596      0.69497  1.0000
  O2          0.79412      0.86093      0.86458  1.0000
  O2          0.09826      0.19844      0.52840  1.0000
  O2          0.13172      0.91519      0.19497  1.0000
  O2          0.94156      0.85697      0.25378  1.0000
  O2          0.13228      0.04937      0.58728  1.0000
  O2          0.92949      0.05921      0.91924  1.0000
  O2          0.06799      0.12419      0.75378  1.0000
  O2          0.87728      0.93179      0.08728  1.0000
  O2          0.08007      0.92194      0.41924  1.0000
  O2          0.89803      0.19847      0.98109  1.0000
  O2          0.79739      0.69507      0.31580  1.0000
  O2          0.30383      0.07489      0.64663  1.0000
  O2          0.11157      0.78269      0.48109  1.0000
  O2          0.21216      0.28612      0.81579  1.0000
  O2          0.70571      0.90628      0.14662  1.0000
  O2          0.20721      0.89705      0.35324  1.0000
  O2          0.70370      0.80886      0.02451  1.0000
  O2          0.09994      0.28088      0.68803  1.0000
  O2          0.80235      0.08414      0.85324  1.0000
  O2          0.30586      0.17232      0.52451  1.0000
  O2          0.90960      0.70028      0.18803  1.0000
  O2          0.32900      0.64610      0.24792  1.0000
  O2          0.35734      0.65435      0.58594  1.0000
  O2          0.33171      0.66248      0.91824  1.0000
  O2          0.68055      0.33507      0.74791  1.0000
  O2          0.65222      0.32678      0.08593  1.0000
  O2          0.67784      0.31869      0.41824  1.0000
  O3          0.36563      0.30694      0.97583  1.0000
  O2          0.67226      0.03942      0.30515  1.0000
  O2          0.95797      0.60638      0.63868  1.0000
  O3          0.64395      0.67423      0.47583  1.0000
  O2          0.33730      0.94176      0.80516  1.0000
  O2          0.05158      0.37478      0.13869  1.0000
  O2          0.32849      0.36970      0.36710  1.0000
  O2          0.04620      0.66768      0.02986  1.0000
  O2          0.62934      0.93265      0.69708  1.0000
  O2          0.68106      0.61149      0.86710  1.0000
  O2          0.96336      0.31348      0.52985  1.0000
  O2          0.38021      0.04851      0.19707  1.0000
  O2          0.77155      0.29974      0.01387  1.0000
  O2          0.69446      0.46250      0.34791  1.0000
  O2          0.53440      0.20793      0.67669  1.0000
  O2          0.23803      0.68139      0.51387  1.0000
  O2          0.31508      0.51868      0.84791  1.0000
  O2          0.47515      0.77323      0.17669  1.0000
  O2          0.30992      0.76856      0.32182  1.0000
  O2          0.47210      0.69173      0.99086  1.0000
  O2          0.22961      0.51154      0.65818  1.0000
  O2          0.69964      0.21263      0.82182  1.0000
  O2          0.53746      0.28943      0.49086  1.0000
  O2          0.77993      0.46961      0.15818  1.0000
  O2          0.78911      0.53182      0.02878  1.0000
  O2          0.46888      0.25490      0.36725  1.0000
  O2          0.74956      0.19093      0.69359  1.0000
  O2          0.22046      0.44931      0.52879  1.0000
  O2          0.54067      0.72628      0.86725  1.0000
  O2          0.25998      0.79023      0.19359  1.0000
  O2          0.53977      0.77946      0.30406  1.0000
  O2          0.26352      0.45966      0.97398  1.0000
  O2          0.21741      0.72938      0.64017  1.0000
  O2          0.46979      0.20173      0.80406  1.0000
  O2          0.74604      0.52150      0.47398  1.0000
  O2          0.79214      0.25178      0.14017  1.0000
  O2          0.24296      0.31403      0.90125  1.0000
  O2          0.68268      0.90873      0.23141  1.0000
  O2          0.09406      0.74985      0.56620  1.0000
  O2          0.76661      0.66714      0.40126  1.0000
  O2          0.32687      0.07245      0.73141  1.0000
  O2          0.91552      0.23131      0.06620  1.0000
  O2          0.32640      0.22982      0.43983  1.0000
  O2          0.91186      0.67582      0.10282  1.0000
  O2          0.77205      0.07252      0.76859  1.0000
  O2          0.68316      0.75136      0.93983  1.0000
  O2          0.09768      0.30532      0.60282  1.0000
  O2          0.23750      0.90866      0.26859  1.0000
  O3          0.60283      0.56514      0.00184  1.0000
  O2          0.44367      0.02841      0.32464  1.0000
  O2          0.97038      0.38874      0.65794  1.0000
  O3          0.40675      0.41604      0.50184  1.0000
  O2          0.56588      0.95278      0.82464  1.0000
  O2          0.03916      0.59242      0.15794  1.0000
  O2          0.55787      0.58104      0.34737  1.0000
  O2          0.03048      0.43715      0.00972  1.0000
  O2          0.41655      0.94963      0.67685  1.0000
  O2          0.45169      0.40015      0.84736  1.0000
  O2          0.97910      0.54402      0.50971  1.0000
  O2          0.59299      0.03153      0.17685  1.0000
  O2          0.58774      0.16681      0.25130  1.0000
  O2          0.83722      0.40008      0.58291  1.0000
  O3          0.60358      0.39870      0.91528  1.0000
  O2          0.42181      0.81437      0.75131  1.0000
  O2          0.17234      0.58109      0.08291  1.0000
  O3          0.40599      0.58248      0.41529  1.0000
  F           0.45983      0.90717      0.25117  1.0000
  F           0.09203      0.52607      0.58571  1.0000
  F           0.47826      0.51441      0.92875  1.0000
  F           0.54972      0.07401      0.75118  1.0000
  F           0.91752      0.45507      0.08571  1.0000
  F           0.53131      0.46676      0.42875  1.0000
