data_cif

_audit_creation_method             'generated by GULP'

_symmetry_space_group_name_H-M     'P 1'
_symmetry_Int_Tables_number        1
_symmetry_cell_setting             triclinic

_cell_length_a                       11.9515
_cell_length_b                       12.0230
_cell_length_c                       29.4529
_cell_angle_alpha                   90.1659
_cell_angle_beta                    90.2672
_cell_angle_gamma                  120.2714

loop_
_atom_site_label
_atom_site_fract_x
_atom_site_fract_y
_atom_site_fract_z
_atom_site_occupancy
  Ge          0.69960      0.37570      0.03389  1.0000
  Si          0.59552      0.30453      0.36597  1.0000
  Si          0.65686      0.28087      0.69825  1.0000
  Si          0.27162      0.60230      0.53056  1.0000
  Si          0.35997      0.66016      0.86254  1.0000
  Si          0.30078      0.68471      0.19746  1.0000
  Si          0.34909      0.67885      0.29850  1.0000
  Si          0.30587      0.60783      0.96292  1.0000
  Si          0.27666      0.66003      0.63121  1.0000
  Si          0.60361      0.28157      0.79890  1.0000
  Si          0.65108      0.36268      0.46654  1.0000
  Si          0.66660      0.30127      0.13137  1.0000
  Si          0.51886      0.40570      0.96598  1.0000
  Si          0.55769      0.09157      0.30255  1.0000
  Si          0.86587      0.45341      0.63336  1.0000
  Si          0.44196      0.56402      0.46483  1.0000
  Si          0.39764      0.87019      0.79815  1.0000
  Si          0.09142      0.51655      0.12986  1.0000
  Si          0.38860      0.50769      0.36303  1.0000
  Si          0.09315      0.57281      0.02693  1.0000
  Si          0.44962      0.87140      0.69636  1.0000
  Si          0.56693      0.45592      0.86327  1.0000
  Si          0.86206      0.39936      0.53165  1.0000
  Si          0.51204      0.09574      0.20070  1.0000
  Si          0.28514      0.38400      0.84814  1.0000
  Si          0.58133      0.88680      0.18537  1.0000
  Si          0.07037      0.67923      0.51686  1.0000
  Si          0.67024      0.57981      0.34957  1.0000
  Si          0.37799      0.07928      0.68272  1.0000
  Si          0.88055      0.28534      0.00985  1.0000
  Si          0.37127      0.28472      0.47992  1.0000
  Si          0.87511      0.58463      0.14453  1.0000
  Si          0.68001      0.08053      0.81303  1.0000
  Si          0.58504      0.68603      0.97752  1.0000
  Si          0.07577      0.38213      0.64664  1.0000
  Si          0.27380      0.88062      0.31375  1.0000
  Si          0.23856      0.32950      0.94869  1.0000
  Si          0.63219      0.88921      0.28670  1.0000
  Si          0.06685      0.73201      0.61756  1.0000
  Si          0.72189      0.64179      0.45020  1.0000
  Si          0.32125      0.07149      0.78339  1.0000
  Si          0.88464      0.23661      0.11282  1.0000
  Si          0.31340      0.23101      0.37917  1.0000
  Si          0.89305      0.65801      0.04285  1.0000
  Si          0.72935      0.07352      0.71226  1.0000
  Si          0.64200      0.73382      0.87689  1.0000
  Si          0.06313      0.32156      0.54585  1.0000
  Si          0.23159      0.89330      0.21268  1.0000
  Si          0.95999      0.11047      0.96251  1.0000
  Si          0.84962      0.82857      0.30068  1.0000
  Si          0.12898      0.01169      0.63186  1.0000
  Si          0.00329      0.85961      0.46621  1.0000
  Si          0.10460      0.13477      0.79745  1.0000
  Si          0.82682      0.96107      0.13106  1.0000
  Si          0.09626      0.94990      0.36523  1.0000
  Si          0.83299      0.87350      0.02952  1.0000
  Si          0.00950      0.13502      0.69667  1.0000
  Si          0.86137      0.01229      0.86241  1.0000
  Si          0.12448      0.10386      0.53113  1.0000
  Ge          0.94854      0.83584      0.19712  1.0000
  O2          0.91399      0.99610      0.99819  1.0000
  O2          0.97193      0.90626      0.33369  1.0000
  O2          0.04885      0.05431      0.66368  1.0000
  O2          0.04389      0.98139      0.49862  1.0000
  O2          0.98148      0.05492      0.82920  1.0000
  O3          0.91564      0.92902      0.16188  1.0000
  O2          0.31048      0.55471      0.33028  1.0000
  O2          0.40132      0.74631      0.66358  1.0000
  O2          0.22055      0.64651      0.99564  1.0000
  O2          0.64283      0.40506      0.83140  1.0000
  O2          0.55983      0.22236      0.16990  1.0000
  O2          0.73432      0.32357      0.49954  1.0000
  O3          0.56448      0.33230      0.99798  1.0000
  O2          0.74127      0.40461      0.66600  1.0000
  O2          0.63409      0.21670      0.33518  1.0000
  O2          0.39325      0.64055      0.49704  1.0000
  O2          0.21571      0.56410      0.16303  1.0000
  O2          0.32080      0.74439      0.82997  1.0000
  O2          0.11419      0.20061      0.96862  1.0000
  O2          0.75638      0.88831      0.30840  1.0000
  O2          0.06648      0.85791      0.63744  1.0000
  O2          0.84812      0.76943      0.47020  1.0000
  O2          0.19476      0.07114      0.80337  1.0000
  O2          0.88523      0.11445      0.13488  1.0000
  O2          0.18760      0.10343      0.35883  1.0000
  O2          0.90921      0.79477      0.02726  1.0000
  O2          0.85479      0.07269      0.69181  1.0000
  O2          0.76896      0.85871      0.85643  1.0000
  O2          0.06043      0.19381      0.52612  1.0000
  O3          0.11229      0.89941      0.19083  1.0000
  O3          0.90269      0.85184      0.25039  1.0000
  O2          0.11475      0.05056      0.58128  1.0000
  O2          0.91837      0.04913      0.91288  1.0000
  O2          0.05228      0.12165      0.74667  1.0000
  O2          0.83219      0.92079      0.08005  1.0000
  O2          0.04779      0.91329      0.41613  1.0000
  O2          0.89341      0.19574      0.97180  1.0000
  O2          0.76832      0.67564      0.31091  1.0000
  O2          0.28119      0.08156      0.64418  1.0000
  O2          0.07128      0.77700      0.47871  1.0000
  O2          0.18695      0.28607      0.80956  1.0000
  O2          0.67738      0.88521      0.14709  1.0000
  O2          0.17579      0.87870      0.35207  1.0000
  O2          0.68296      0.78626      0.01559  1.0000
  O2          0.07937      0.28643      0.68467  1.0000
  O2          0.77878      0.08194      0.85153  1.0000
  O2          0.27590      0.18768      0.51849  1.0000
  O3          0.87248      0.67408      0.18445  1.0000
  O2          0.29613      0.62369      0.24730  1.0000
  O2          0.33226      0.66021      0.58064  1.0000
  O2          0.30177      0.66196      0.91254  1.0000
  O2          0.65917      0.33846      0.74860  1.0000
  O3          0.60283      0.29477      0.08357  1.0000
  O2          0.65300      0.30638      0.41632  1.0000
  O2          0.36062      0.32045      0.96681  1.0000
  O2          0.64330      0.02130      0.30540  1.0000
  O2          0.93482      0.60946      0.63610  1.0000
  O2          0.59895      0.65191      0.46771  1.0000
  O2          0.31055      0.93910      0.80128  1.0000
  O2          0.01771      0.36111      0.13038  1.0000
  O2          0.30177      0.35136      0.36005  1.0000
  O2          0.02467      0.65982      0.02643  1.0000
  O2          0.60647      0.94109      0.69348  1.0000
  O2          0.65233      0.61186      0.85885  1.0000
  O2          0.92983      0.31151      0.52775  1.0000
  O2          0.35611      0.02556      0.19601  1.0000
  O3          0.74855      0.28101      0.00115  1.0000
  O2          0.67012      0.44591      0.34237  1.0000
  O2          0.51304      0.21285      0.67541  1.0000
  O2          0.20337      0.67747      0.50851  1.0000
  O2          0.28524      0.51727      0.83952  1.0000
  O2          0.44535      0.75437      0.17606  1.0000
  O2          0.27255      0.74602      0.32020  1.0000
  O2          0.45037      0.68614      0.98511  1.0000
  O2          0.21010      0.51725      0.65346  1.0000
  O2          0.67927      0.21359      0.82088  1.0000
  O2          0.50659      0.28741      0.48795  1.0000
  O2          0.74170      0.45008      0.15005  1.0000
  O3          0.76656      0.54493      0.02084  1.0000
  O2          0.43888      0.22912      0.36017  1.0000
  O2          0.73169      0.20012      0.69290  1.0000
  O2          0.18950      0.44615      0.52578  1.0000
  O2          0.51675      0.73595      0.85730  1.0000
  O2          0.22542      0.76470      0.19270  1.0000
  O2          0.50508      0.76239      0.30481  1.0000
  O2          0.23258      0.45227      0.96862  1.0000
  O2          0.19420      0.73317      0.63648  1.0000
  O2          0.44704      0.19789      0.80340  1.0000
  O2          0.72373      0.51850      0.47075  1.0000
  O2          0.76039      0.23889      0.13177  1.0000
  O2          0.21424      0.31084      0.89442  1.0000
  O2          0.65254      0.88734      0.23238  1.0000
  O2          0.06732      0.75005      0.56322  1.0000
  O2          0.74148      0.65661      0.39582  1.0000
  O2          0.30314      0.07386      0.72903  1.0000
  O2          0.88461      0.22197      0.05852  1.0000
  O2          0.29593      0.21331      0.43347  1.0000
  O2          0.88528      0.66180      0.09840  1.0000
  O2          0.74993      0.07620      0.76660  1.0000
  O2          0.66024      0.75504      0.93120  1.0000
  O2          0.06788      0.30631      0.60013  1.0000
  O2          0.20497      0.88659      0.26694  1.0000
  O2          0.56999      0.54842      0.98756  1.0000
  O2          0.41414      0.00511      0.32371  1.0000
  O2          0.95142      0.39745      0.65597  1.0000
  O2          0.38524      0.42377      0.48803  1.0000
  O2          0.53983      0.95524      0.82132  1.0000
  O2          0.99844      0.56514      0.15026  1.0000
  O2          0.53018      0.56499      0.33999  1.0000
  O2          0.00232      0.43176      0.00527  1.0000
  O2          0.39123      0.95414      0.67330  1.0000
  O2          0.42455      0.39696      0.84008  1.0000
  O2          0.94394      0.53977      0.50809  1.0000
  O2          0.57251      0.01496      0.17758  1.0000
  O2          0.56193      0.14674      0.25195  1.0000
  O2          0.81050      0.39922      0.58259  1.0000
  O2          0.57014      0.40889      0.91432  1.0000
  O2          0.39684      0.81802      0.74702  1.0000
  O2          0.13806      0.56743      0.07882  1.0000
  O2          0.38834      0.56174      0.41370  1.0000
  F           0.42611      0.88296      0.24865  1.0000
  F           0.07253      0.53029      0.58093  1.0000
  F           0.43199      0.53787      0.91238  1.0000
  F           0.52900      0.07976      0.74720  1.0000
  F           0.84472      0.42861      0.07054  1.0000
  F           0.52112      0.43291      0.41390  1.0000
