data_cif

_audit_creation_method             'generated by GULP'

_symmetry_space_group_name_H-M     'P 1'
_symmetry_Int_Tables_number        1
_symmetry_cell_setting             triclinic

_cell_length_a                       11.9356
_cell_length_b                       12.0267
_cell_length_c                       29.4415
_cell_angle_alpha                   90.0248
_cell_angle_beta                    90.3271
_cell_angle_gamma                  120.1388

loop_
_atom_site_label
_atom_site_fract_x
_atom_site_fract_y
_atom_site_fract_z
_atom_site_occupancy
  Ge          0.69960      0.37570      0.03389  1.0000
  Si          0.59390      0.30540      0.36461  1.0000
  Si          0.65748      0.28316      0.69831  1.0000
  Si          0.27499      0.61123      0.52983  1.0000
  Si          0.36166      0.66278      0.86265  1.0000
  Si          0.29870      0.68959      0.19670  1.0000
  Si          0.35093      0.68186      0.29733  1.0000
  Si          0.30716      0.60936      0.96295  1.0000
  Si          0.27942      0.66272      0.63106  1.0000
  Si          0.60412      0.28374      0.79902  1.0000
  Si          0.65295      0.36643      0.46471  1.0000
  Si          0.66726      0.30508      0.13200  1.0000
  Si          0.52008      0.40805      0.96643  1.0000
  Si          0.55798      0.09329      0.30114  1.0000
  Si          0.86674      0.45575      0.63323  1.0000
  Si          0.44161      0.56873      0.46371  1.0000
  Si          0.39877      0.87262      0.79806  1.0000
  Si          0.08953      0.51835      0.12978  1.0000
  Si          0.38735      0.50867      0.36215  1.0000
  Si          0.09306      0.57247      0.02658  1.0000
  Si          0.45112      0.87364      0.69623  1.0000
  Si          0.56875      0.45846      0.86368  1.0000
  Si          0.86278      0.40830      0.53122  1.0000
  Si          0.50600      0.09706      0.19953  1.0000
  Si          0.28684      0.38688      0.84852  1.0000
  Si          0.57808      0.89068      0.18297  1.0000
  Si          0.07241      0.68792      0.51752  1.0000
  Si          0.66882      0.58110      0.34750  1.0000
  Si          0.37920      0.08156      0.68244  1.0000
  Si          0.88056      0.28512      0.01075  1.0000
  Si          0.37491      0.29114      0.47970  1.0000
  Si          0.87447      0.58925      0.14292  1.0000
  Si          0.68085      0.08248      0.81317  1.0000
  Si          0.58635      0.68816      0.97817  1.0000
  Si          0.07823      0.38438      0.64528  1.0000
  Si          0.27584      0.88330      0.31317  1.0000
  Si          0.23944      0.33129      0.94902  1.0000
  Si          0.63359      0.89229      0.28395  1.0000
  Si          0.06872      0.73420      0.61880  1.0000
  Si          0.72030      0.64351      0.44803  1.0000
  Si          0.32215      0.07393      0.78312  1.0000
  Si          0.88458      0.23742      0.11409  1.0000
  Si          0.31128      0.23213      0.37945  1.0000
  Si          0.89222      0.65720      0.04057  1.0000
  Si          0.73031      0.07603      0.71239  1.0000
  Si          0.64373      0.73600      0.87741  1.0000
  Si          0.06526      0.33176      0.54401  1.0000
  Si          0.22558      0.89564      0.21260  1.0000
  Si          0.96110      0.11191      0.96301  1.0000
  Si          0.85047      0.82813      0.29737  1.0000
  Si          0.12795      0.01092      0.63307  1.0000
  Si          0.00009      0.86134      0.46405  1.0000
  Si          0.10587      0.13828      0.79793  1.0000
  Si          0.82610      0.96078      0.13132  1.0000
  Si          0.09528      0.95060      0.36307  1.0000
  Si          0.83461      0.87466      0.02979  1.0000
  Si          0.01075      0.13819      0.69698  1.0000
  Si          0.86254      0.01429      0.86287  1.0000
  Ge          0.12400      0.10866      0.53035  1.0000
  Si          0.94543      0.83597      0.19597  1.0000
  O2          0.91537      0.99798      0.99886  1.0000
  O2          0.97485      0.90814      0.32919  1.0000
  O2          0.05020      0.05535      0.66547  1.0000
  O3          0.03496      0.98398      0.49363  1.0000
  O2          0.98339      0.05775      0.82992  1.0000
  O2          0.90757      0.92080      0.16428  1.0000
  O2          0.31107      0.55717      0.32894  1.0000
  O2          0.40383      0.74858      0.66361  1.0000
  O2          0.22075      0.64678      0.99554  1.0000
  O2          0.64373      0.40679      0.83165  1.0000
  O2          0.55713      0.22587      0.16960  1.0000
  O2          0.73725      0.33043      0.49844  1.0000
  O3          0.56377      0.33276      0.99843  1.0000
  O2          0.74261      0.40681      0.66613  1.0000
  O2          0.63323      0.21865      0.33358  1.0000
  O2          0.39540      0.64803      0.49572  1.0000
  O2          0.21374      0.56794      0.16297  1.0000
  O2          0.32232      0.74690      0.82994  1.0000
  O2          0.11526      0.20231      0.96889  1.0000
  O2          0.75981      0.89115      0.30397  1.0000
  O2          0.06848      0.85806      0.64045  1.0000
  O2          0.84567      0.76890      0.46847  1.0000
  O2          0.19558      0.07371      0.80302  1.0000
  O2          0.88695      0.11463      0.13573  1.0000
  O2          0.18537      0.10489      0.35914  1.0000
  O2          0.90883      0.79430      0.02530  1.0000
  O2          0.85614      0.07622      0.69178  1.0000
  O2          0.77073      0.86088      0.85700  1.0000
  O3          0.05897      0.20653      0.52269  1.0000
  O2          0.10031      0.89839      0.19234  1.0000
  O2          0.90029      0.84160      0.24636  1.0000
  O3          0.10344      0.04133      0.58283  1.0000
  O2          0.91905      0.05088      0.91341  1.0000
  O2          0.05240      0.12801      0.74750  1.0000
  O2          0.83890      0.92176      0.08089  1.0000
  O2          0.04050      0.90720      0.41284  1.0000
  O2          0.89359      0.19605      0.97268  1.0000
  O2          0.76741      0.67660      0.30894  1.0000
  O2          0.28182      0.08326      0.64375  1.0000
  O2          0.07426      0.78626      0.47947  1.0000
  O2          0.18875      0.28909      0.81006  1.0000
  O2          0.67460      0.89050      0.14435  1.0000
  O2          0.17842      0.88215      0.35150  1.0000
  O2          0.68382      0.78856      0.01638  1.0000
  O2          0.08168      0.28825      0.68321  1.0000
  O2          0.77945      0.08356      0.85178  1.0000
  O3          0.28699      0.19735      0.51949  1.0000
  O2          0.87640      0.68652      0.18145  1.0000
  O2          0.29634      0.62808      0.24626  1.0000
  O2          0.33544      0.66581      0.58023  1.0000
  O2          0.30298      0.66410      0.91260  1.0000
  O2          0.65934      0.34057      0.74862  1.0000
  O3          0.60388      0.29846      0.08409  1.0000
  O2          0.65442      0.30921      0.41466  1.0000
  O2          0.36188      0.32261      0.96704  1.0000
  O2          0.64505      0.02402      0.30331  1.0000
  O2          0.93672      0.61134      0.63688  1.0000
  O2          0.59848      0.65539      0.46573  1.0000
  O2          0.31153      0.94157      0.80111  1.0000
  O2          0.01647      0.36302      0.13157  1.0000
  O2          0.30012      0.35254      0.35973  1.0000
  O2          0.02538      0.66030      0.02549  1.0000
  O2          0.60807      0.94370      0.69353  1.0000
  O2          0.65409      0.61421      0.85925  1.0000
  O2          0.93134      0.32204      0.52722  1.0000
  O2          0.34918      0.02766      0.19496  1.0000
  O3          0.74762      0.27918      0.00198  1.0000
  O2          0.66690      0.44630      0.34072  1.0000
  O2          0.51390      0.21531      0.67516  1.0000
  O2          0.20608      0.68719      0.50886  1.0000
  O2          0.28721      0.52021      0.83966  1.0000
  O2          0.44202      0.75858      0.17420  1.0000
  O2          0.27483      0.74898      0.31951  1.0000
  O2          0.45134      0.68808      0.98538  1.0000
  O2          0.21244      0.51921      0.65265  1.0000
  O2          0.67977      0.21533      0.82091  1.0000
  O2          0.50961      0.29183      0.48644  1.0000
  O2          0.74283      0.45426      0.15078  1.0000
  O3          0.76786      0.54344      0.01810  1.0000
  O2          0.43677      0.22933      0.36058  1.0000
  O2          0.73258      0.20264      0.69306  1.0000
  O2          0.19228      0.45613      0.52425  1.0000
  O2          0.51855      0.73850      0.85768  1.0000
  O2          0.22164      0.76867      0.19233  1.0000
  O2          0.50745      0.76552      0.30270  1.0000
  O2          0.23360      0.45403      0.96885  1.0000
  O2          0.19652      0.73504      0.63714  1.0000
  O2          0.44755      0.20009      0.80326  1.0000
  O2          0.72434      0.52149      0.46846  1.0000
  O2          0.76059      0.24133      0.13289  1.0000
  O2          0.21543      0.31351      0.89473  1.0000
  O2          0.65146      0.89235      0.22956  1.0000
  O2          0.07020      0.75691      0.56450  1.0000
  O2          0.73953      0.65795      0.39363  1.0000
  O2          0.30410      0.07622      0.72871  1.0000
  O2          0.88492      0.22279      0.05976  1.0000
  O2          0.29354      0.21642      0.43405  1.0000
  O2          0.87890      0.65867      0.09584  1.0000
  O2          0.75083      0.07823      0.76675  1.0000
  O2          0.66177      0.75669      0.93178  1.0000
  O2          0.07352      0.31185      0.59827  1.0000
  O2          0.20618      0.89142      0.26691  1.0000
  O2          0.57074      0.55030      0.98826  1.0000
  O2          0.41624      0.00656      0.32341  1.0000
  O2          0.95224      0.39752      0.65443  1.0000
  O2          0.38682      0.42957      0.48752  1.0000
  O2          0.54074      0.95740      0.82133  1.0000
  O2          0.99780      0.56988      0.14919  1.0000
  O2          0.52828      0.56579      0.33855  1.0000
  O2          0.00185      0.43118      0.00542  1.0000
  O2          0.39312      0.95681      0.67299  1.0000
  O2          0.42632      0.39966      0.84056  1.0000
  O2          0.94488      0.54989      0.50863  1.0000
  O2          0.56594      0.01712      0.17531  1.0000
  O2          0.55756      0.14718      0.25068  1.0000
  O2          0.81030      0.40585      0.58224  1.0000
  O2          0.57220      0.41182      0.91483  1.0000
  O2          0.39820      0.82060      0.74695  1.0000
  O2          0.13691      0.56666      0.07858  1.0000
  O2          0.38670      0.56415      0.41254  1.0000
  F           0.42524      0.88611      0.24730  1.0000
  F           0.07463      0.53561      0.58072  1.0000
  F           0.43334      0.54034      0.91276  1.0000
  F           0.52968      0.08208      0.74705  1.0000
  F           0.84477      0.42954      0.07048  1.0000
  F           0.51839      0.43408      0.41313  1.0000
