data_cif

_audit_creation_method             'generated by GULP'

_symmetry_space_group_name_H-M     'P 1'
_symmetry_Int_Tables_number        1
_symmetry_cell_setting             triclinic

_cell_length_a                       11.9894
_cell_length_b                       11.9267
_cell_length_c                       29.4753
_cell_angle_alpha                   89.5006
_cell_angle_beta                    89.9569
_cell_angle_gamma                  119.9218

loop_
_atom_site_label
_atom_site_fract_x
_atom_site_fract_y
_atom_site_fract_z
_atom_site_occupancy
  Si          0.69960      0.37570      0.03389  1.0000
  Si          0.61804      0.31123      0.36777  1.0000
  Si          0.67278      0.27627      0.69866  1.0000
  Si          0.29123      0.60360      0.53140  1.0000
  Si          0.38543      0.67498      0.86791  1.0000
  Si          0.32521      0.69801      0.20073  1.0000
  Si          0.37827      0.69479      0.30128  1.0000
  Si          0.32962      0.61865      0.97076  1.0000
  Si          0.29230      0.65718      0.63195  1.0000
  Si          0.62251      0.28535      0.80069  1.0000
  Si          0.66995      0.36404      0.46824  1.0000
  Si          0.70602      0.32246      0.13561  1.0000
  Ge          0.53283      0.42625      0.96608  1.0000
  Si          0.58103      0.10306      0.30271  1.0000
  Si          0.88363      0.45067      0.63342  1.0000
  Si          0.46622      0.56833      0.46758  1.0000
  Ge          0.43353      0.89063      0.79817  1.0000
  Si          0.11579      0.52841      0.13565  1.0000
  Si          0.41508      0.51994      0.36607  1.0000
  Si          0.11499      0.58040      0.03426  1.0000
  Si          0.46441      0.85519      0.69938  1.0000
  Si          0.59527      0.46090      0.86678  1.0000
  Si          0.87982      0.39874      0.53217  1.0000
  Si          0.53281      0.11058      0.20107  1.0000
  Si          0.30952      0.39096      0.85464  1.0000
  Si          0.60378      0.89994      0.18681  1.0000
  Si          0.08946      0.68051      0.51802  1.0000
  Si          0.69591      0.59096      0.35290  1.0000
  Si          0.39176      0.07099      0.68592  1.0000
  Si          0.90448      0.30044      0.02067  1.0000
  Si          0.39260      0.28686      0.48304  1.0000
  Si          0.90809      0.60032      0.15003  1.0000
  Si          0.70515      0.08371      0.82004  1.0000
  Si          0.61172      0.69951      0.98856  1.0000
  Si          0.09082      0.37856      0.64777  1.0000
  Si          0.30071      0.89520      0.31698  1.0000
  Si          0.25450      0.32984      0.95675  1.0000
  Si          0.65933      0.90242      0.28743  1.0000
  Si          0.08357      0.73016      0.61871  1.0000
  Si          0.74444      0.64666      0.45356  1.0000
  Si          0.33478      0.07206      0.78817  1.0000
  Si          0.91465      0.25036      0.12114  1.0000
  Si          0.33722      0.23993      0.38231  1.0000
  Si          0.91348      0.65700      0.04915  1.0000
  Si          0.74439      0.06206      0.71705  1.0000
  Si          0.66948      0.74172      0.88514  1.0000
  Si          0.08153      0.32170      0.54723  1.0000
  Si          0.25403      0.90835      0.21628  1.0000
  Si          0.97072      0.11969      0.97118  1.0000
  Si          0.87781      0.84069      0.30279  1.0000
  Si          0.14546      0.01000      0.63592  1.0000
  Si          0.02376      0.86421      0.46866  1.0000
  Si          0.12526      0.14731      0.80339  1.0000
  Si          0.85391      0.97022      0.13772  1.0000
  Si          0.11932      0.96083      0.36785  1.0000
  Si          0.85545      0.87984      0.03728  1.0000
  Si          0.02698      0.13362      0.70191  1.0000
  Si          0.88772      0.02463      0.87035  1.0000
  Si          0.14533      0.10498      0.53457  1.0000
  Si          0.97492      0.84634      0.20206  1.0000
  O2          0.93727      0.00333      0.00559  1.0000
  O2          0.99642      0.91914      0.33641  1.0000
  O2          0.07097      0.05076      0.67166  1.0000
  O2          0.06564      0.98066      0.50359  1.0000
  O2          0.01038      0.06512      0.83838  1.0000
  O2          0.93243      0.93039      0.17183  1.0000
  O2          0.33900      0.56927      0.33367  1.0000
  O2          0.41957      0.74095      0.66234  1.0000
  O2          0.24152      0.65588      0.00167  1.0000
  O2          0.66406      0.41518      0.82894  1.0000
  O2          0.58307      0.23749      0.16888  1.0000
  O2          0.75400      0.32317      0.50058  1.0000
  O3          0.58214      0.33879      0.00213  1.0000
  O2          0.75661      0.39824      0.66566  1.0000
  O2          0.65734      0.22748      0.33541  1.0000
  O2          0.41496      0.64435      0.49920  1.0000
  O2          0.24141      0.57667      0.16785  1.0000
  O3          0.34902      0.75499      0.83536  1.0000
  O2          0.12231      0.21198      0.97603  1.0000
  O2          0.78575      0.90287      0.30746  1.0000
  O2          0.08071      0.85469      0.63928  1.0000
  O2          0.86964      0.77354      0.47356  1.0000
  O2          0.21578      0.08476      0.80676  1.0000
  O2          0.91552      0.12438      0.14201  1.0000
  O2          0.21117      0.11529      0.36197  1.0000
  O2          0.91235      0.78411      0.02937  1.0000
  O2          0.87255      0.06700      0.69667  1.0000
  O2          0.79278      0.87092      0.86434  1.0000
  O2          0.08113      0.19496      0.52756  1.0000
  O2          0.12885      0.91011      0.19628  1.0000
  O2          0.93579      0.85496      0.25317  1.0000
  O2          0.13298      0.05742      0.58634  1.0000
  O2          0.93276      0.06029      0.92142  1.0000
  O2          0.06680      0.13248      0.75352  1.0000
  O2          0.87159      0.92746      0.08842  1.0000
  O2          0.06757      0.92359      0.41892  1.0000
  O2          0.89957      0.20085      0.98199  1.0000
  O2          0.79515      0.68816      0.31469  1.0000
  O2          0.29680      0.07347      0.64731  1.0000
  O2          0.09112      0.77900      0.47949  1.0000
  O2          0.21036      0.29861      0.81566  1.0000
  O2          0.70159      0.89999      0.14869  1.0000
  O2          0.20089      0.89092      0.35547  1.0000
  O2          0.70485      0.80985      0.02431  1.0000
  O2          0.09455      0.28297      0.68643  1.0000
  O2          0.81685      0.10396      0.85555  1.0000
  O2          0.29622      0.18735      0.52179  1.0000
  O2          0.90534      0.69609      0.18845  1.0000
  O2          0.32280      0.63857      0.25109  1.0000
  O2          0.34736      0.65707      0.58165  1.0000
  O2          0.33459      0.67084      0.91952  1.0000
  O2          0.67134      0.32903      0.74878  1.0000
  O2          0.64978      0.32366      0.08580  1.0000
  O2          0.67211      0.30822      0.41827  1.0000
  O3          0.36634      0.31052      0.97616  1.0000
  O2          0.66859      0.03427      0.30617  1.0000
  O2          0.95193      0.60684      0.63785  1.0000
  O2          0.62178      0.65625      0.47186  1.0000
  O3          0.31799      0.94158      0.80830  1.0000
  O2          0.04692      0.37170      0.13971  1.0000
  O2          0.32789      0.36329      0.36395  1.0000
  O2          0.04749      0.66940      0.03088  1.0000
  O2          0.62274      0.92961      0.69912  1.0000
  O2          0.68023      0.61972      0.86632  1.0000
  O2          0.94841      0.31074      0.52966  1.0000
  O2          0.37684      0.04183      0.19838  1.0000
  O2          0.77195      0.30095      0.01389  1.0000
  O2          0.69463      0.45601      0.34592  1.0000
  O2          0.52780      0.20328      0.67906  1.0000
  O2          0.22277      0.68014      0.51025  1.0000
  O2          0.31364      0.52683      0.84957  1.0000
  O2          0.46944      0.76693      0.17907  1.0000
  O2          0.30196      0.76098      0.32430  1.0000
  O2          0.47330      0.69391      0.99177  1.0000
  O2          0.22286      0.51393      0.65530  1.0000
  O2          0.69769      0.21631      0.82200  1.0000
  O2          0.52702      0.28817      0.49107  1.0000
  O2          0.77546      0.46523      0.15829  1.0000
  O2          0.78982      0.53267      0.02919  1.0000
  O2          0.46260      0.23921      0.36304  1.0000
  O2          0.73529      0.18406      0.69775  1.0000
  O2          0.20634      0.44751      0.52684  1.0000
  O2          0.54001      0.73308      0.86657  1.0000
  O2          0.25367      0.78272      0.19649  1.0000
  O2          0.53399      0.77462      0.30687  1.0000
  O2          0.26434      0.46352      0.97407  1.0000
  O2          0.21171      0.73315      0.63743  1.0000
  O2          0.46796      0.19725      0.80480  1.0000
  O2          0.74558      0.52061      0.47349  1.0000
  O2          0.78734      0.24741      0.14052  1.0000
  O2          0.24320      0.31795      0.90162  1.0000
  O2          0.67732      0.90232      0.23319  1.0000
  O2          0.08426      0.74994      0.56444  1.0000
  O2          0.76454      0.66497      0.39932  1.0000
  O2          0.32344      0.07030      0.73303  1.0000
  O2          0.91261      0.23016      0.06693  1.0000
  O2          0.31896      0.21806      0.43670  1.0000
  O2          0.91141      0.67460      0.10347  1.0000
  O2          0.76092      0.06764      0.77117  1.0000
  O2          0.68253      0.75691      0.93936  1.0000
  O2          0.08635      0.30454      0.60153  1.0000
  O2          0.23274      0.90312      0.27063  1.0000
  O3          0.60466      0.56782      0.00134  1.0000
  O2          0.43971      0.02030      0.32622  1.0000
  O2          0.96312      0.38860      0.65708  1.0000
  O2          0.40602      0.42654      0.49166  1.0000
  O3          0.57510      0.95867      0.83334  1.0000
  O2          0.03469      0.58853      0.15914  1.0000
  O2          0.55685      0.57638      0.34368  1.0000
  O2          0.03155      0.43943      0.01104  1.0000
  O2          0.41154      0.94869      0.67952  1.0000
  O2          0.45012      0.40779      0.84669  1.0000
  O2          0.96513      0.54083      0.50925  1.0000
  O2          0.58938      0.02574      0.17835  1.0000
  O2          0.58361      0.16016      0.25222  1.0000
  O2          0.82769      0.39879      0.58318  1.0000
  O3          0.60253      0.40357      0.91455  1.0000
  O3          0.41013      0.79504      0.74802  1.0000
  O2          0.17080      0.58173      0.08474  1.0000
  O2          0.41503      0.57179      0.41692  1.0000
  F           0.45326      0.89790      0.25303  1.0000
  F           0.08662      0.52843      0.58424  1.0000
  F           0.47940      0.51858      0.92869  1.0000
  F           0.52404      0.03554      0.76053  1.0000
  F           0.91462      0.45329      0.08630  1.0000
  F           0.54454      0.44005      0.41922  1.0000
