data_cif

_audit_creation_method             'generated by GULP'

_symmetry_space_group_name_H-M     'P 1'
_symmetry_Int_Tables_number        1
_symmetry_cell_setting             triclinic

_cell_length_a                       11.9318
_cell_length_b                       11.9435
_cell_length_c                       29.4767
_cell_angle_alpha                   90.1199
_cell_angle_beta                    89.6594
_cell_angle_gamma                  119.6926

loop_
_atom_site_label
_atom_site_fract_x
_atom_site_fract_y
_atom_site_fract_z
_atom_site_occupancy
  Si          0.69960      0.37570      0.03389  1.0000
  Si          0.62064      0.32513      0.36329  1.0000
  Si          0.66723      0.29603      0.69392  1.0000
  Si          0.29292      0.62075      0.52937  1.0000
  Si          0.37471      0.67962      0.86090  1.0000
  Si          0.32839      0.70727      0.19591  1.0000
  Si          0.37923      0.70248      0.29654  1.0000
  Si          0.32234      0.62292      0.96296  1.0000
  Si          0.29063      0.67489      0.63007  1.0000
  Si          0.61672      0.30649      0.79539  1.0000
  Si          0.67331      0.37990      0.46359  1.0000
  Si          0.70845      0.32748      0.13462  1.0000
  Ge          0.53451      0.41424      0.96414  1.0000
  Si          0.58327      0.11333      0.29955  1.0000
  Si          0.87927      0.46902      0.62959  1.0000
  Si          0.46557      0.58327      0.46356  1.0000
  Si          0.41302      0.89242      0.79652  1.0000
  Si          0.11953      0.53568      0.13068  1.0000
  Si          0.41631      0.53056      0.36187  1.0000
  Si          0.11046      0.58195      0.02928  1.0000
  Si          0.46109      0.88504      0.69529  1.0000
  Ge          0.57135      0.47415      0.86410  1.0000
  Si          0.88308      0.41781      0.52811  1.0000
  Si          0.53336      0.11600      0.19820  1.0000
  Si          0.29419      0.39657      0.84291  1.0000
  Si          0.60686      0.90848      0.18209  1.0000
  Si          0.09130      0.69783      0.51411  1.0000
  Si          0.69796      0.60276      0.34781  1.0000
  Si          0.38952      0.09425      0.68060  1.0000
  Si          0.90358      0.30170      0.01709  1.0000
  Si          0.39424      0.30212      0.47789  1.0000
  Si          0.90872      0.60635      0.14584  1.0000
  Si          0.69226      0.10146      0.80982  1.0000
  Si          0.60544      0.70298      0.97860  1.0000
  Si          0.08869      0.39687      0.64439  1.0000
  Si          0.30223      0.90427      0.31249  1.0000
  Si          0.25068      0.33552      0.94574  1.0000
  Si          0.66064      0.91179      0.28278  1.0000
  Si          0.08084      0.74706      0.61471  1.0000
  Si          0.74534      0.66101      0.44851  1.0000
  Si          0.33523      0.09366      0.78148  1.0000
  Si          0.91862      0.25628      0.11760  1.0000
  Si          0.33863      0.25175      0.37720  1.0000
  Si          0.90727      0.65872      0.04495  1.0000
  Si          0.73911      0.08644      0.70934  1.0000
  Si          0.66358      0.75406      0.87590  1.0000
  Si          0.08444      0.34019      0.54377  1.0000
  Si          0.25479      0.91556      0.21191  1.0000
  Si          0.96752      0.12276      0.96312  1.0000
  Si          0.87904      0.85037      0.29733  1.0000
  Si          0.14271      0.02678      0.62937  1.0000
  Si          0.02454      0.87872      0.46336  1.0000
  Si          0.11175      0.15133      0.79503  1.0000
  Si          0.85516      0.97615      0.13057  1.0000
  Si          0.12077      0.97215      0.36263  1.0000
  Si          0.85093      0.88266      0.02899  1.0000
  Si          0.01872      0.14769      0.69434  1.0000
  Si          0.87294      0.03803      0.86166  1.0000
  Si          0.14593      0.12137      0.52845  1.0000
  Si          0.97534      0.85417      0.19630  1.0000
  O2          0.93309      0.00037      0.99488  1.0000
  O2          0.00082      0.93048      0.32942  1.0000
  O2          0.06113      0.06883      0.66127  1.0000
  O2          0.06599      0.00064      0.49569  1.0000
  O2          0.99406      0.07362      0.82938  1.0000
  O2          0.93455      0.93205      0.16232  1.0000
  O2          0.34002      0.57886      0.32893  1.0000
  O2          0.41206      0.75862      0.66320  1.0000
  O2          0.23492      0.65718      0.99577  1.0000
  O3          0.65609      0.42790      0.82557  1.0000
  O2          0.58550      0.24473      0.16742  1.0000
  O2          0.75784      0.34090      0.49594  1.0000
  O3          0.57396      0.33332      0.00461  1.0000
  O2          0.75175      0.41893      0.66110  1.0000
  O2          0.66014      0.23854      0.33167  1.0000
  O2          0.41619      0.65952      0.49629  1.0000
  O2          0.24612      0.58603      0.16230  1.0000
  O2          0.33792      0.76744      0.82986  1.0000
  O2          0.12071      0.21594      0.96652  1.0000
  O2          0.78644      0.91211      0.30335  1.0000
  O2          0.07929      0.87274      0.63486  1.0000
  O2          0.87023      0.78776      0.46861  1.0000
  O2          0.20839      0.09448      0.80158  1.0000
  O2          0.92020      0.13018      0.13719  1.0000
  O2          0.21248      0.12606      0.35711  1.0000
  O2          0.90717      0.78471      0.02435  1.0000
  O2          0.86493      0.08515      0.68872  1.0000
  O2          0.78084      0.88586      0.85628  1.0000
  O2          0.08352      0.21346      0.52341  1.0000
  O2          0.12985      0.91811      0.19172  1.0000
  O2          0.93149      0.86617      0.24643  1.0000
  O2          0.13224      0.06683      0.57865  1.0000
  O2          0.92314      0.07466      0.91258  1.0000
  O2          0.05672      0.13089      0.74473  1.0000
  O2          0.86690      0.93848      0.07931  1.0000
  O2          0.06501      0.93224      0.41286  1.0000
  O2          0.89644      0.20117      0.97868  1.0000
  O2          0.79772      0.69873      0.30939  1.0000
  O2          0.29330      0.09589      0.64220  1.0000
  O2          0.09412      0.79636      0.47554  1.0000
  O2          0.18570      0.30372      0.80641  1.0000
  O2          0.70382      0.90779      0.14325  1.0000
  O2          0.20309      0.90169      0.35099  1.0000
  O2          0.69952      0.80679      0.01625  1.0000
  O2          0.08892      0.29980      0.68292  1.0000
  O2          0.79283      0.10902      0.84857  1.0000
  O2          0.29764      0.20340      0.51617  1.0000
  O2          0.90796      0.70307      0.18431  1.0000
  O2          0.32528      0.64729      0.24588  1.0000
  O2          0.34938      0.67628      0.57974  1.0000
  O2          0.32256      0.67588      0.91235  1.0000
  O2          0.66724      0.35371      0.74354  1.0000
  O2          0.64909      0.32367      0.08499  1.0000
  O2          0.67632      0.32390      0.41344  1.0000
  O3          0.36523      0.31827      0.96470  1.0000
  O2          0.67036      0.04354      0.30183  1.0000
  O2          0.94795      0.62514      0.63288  1.0000
  O2          0.62175      0.67078      0.46636  1.0000
  O2          0.32406      0.96019      0.80015  1.0000
  O2          0.05211      0.37958      0.13428  1.0000
  O2          0.32897      0.37451      0.35876  1.0000
  O2          0.03965      0.66796      0.02564  1.0000
  O2          0.61742      0.95326      0.69147  1.0000
  O3          0.68223      0.64162      0.85608  1.0000
  O2          0.95245      0.33035      0.52504  1.0000
  O2          0.37742      0.04829      0.19397  1.0000
  O2          0.77021      0.30301      0.01063  1.0000
  O2          0.69677      0.46771      0.34036  1.0000
  O2          0.52404      0.22610      0.67174  1.0000
  O2          0.22538      0.69674      0.50694  1.0000
  O2          0.29940      0.53527      0.84044  1.0000
  O2          0.47252      0.77581      0.17387  1.0000
  O2          0.30260      0.76994      0.31892  1.0000
  O2          0.46744      0.69847      0.98267  1.0000
  O2          0.22187      0.53104      0.65204  1.0000
  O2          0.69076      0.23415      0.81629  1.0000
  O2          0.52935      0.30400      0.48564  1.0000
  O2          0.77731      0.47217      0.15550  1.0000
  O2          0.77963      0.53267      0.02667  1.0000
  O2          0.46460      0.25043      0.35769  1.0000
  O2          0.74047      0.21253      0.68929  1.0000
  O2          0.21185      0.46484      0.52443  1.0000
  O2          0.52885      0.74185      0.85881  1.0000
  O2          0.25363      0.78931      0.19166  1.0000
  O2          0.53502      0.78461      0.30152  1.0000
  O2          0.26479      0.46957      0.96431  1.0000
  O2          0.20711      0.74807      0.63437  1.0000
  O2          0.45983      0.21846      0.80103  1.0000
  O2          0.74615      0.53584      0.46846  1.0000
  O2          0.79402      0.25650      0.13890  1.0000
  O2          0.23462      0.32482      0.89138  1.0000
  O2          0.68024      0.91121      0.22844  1.0000
  O2          0.08428      0.76726      0.56040  1.0000
  O2          0.76663      0.67751      0.39419  1.0000
  O2          0.31673      0.09393      0.72717  1.0000
  O2          0.91218      0.23402      0.06342  1.0000
  O2          0.32068      0.23226      0.43148  1.0000
  O2          0.90811      0.67804      0.09927  1.0000
  O2          0.76094      0.09142      0.76356  1.0000
  O2          0.67549      0.76530      0.93083  1.0000
  O2          0.08542      0.32222      0.59806  1.0000
  O2          0.23379      0.91187      0.26619  1.0000
  O3          0.58936      0.56617      0.98912  1.0000
  O2          0.44144      0.02806      0.32225  1.0000
  O2          0.96303      0.41155      0.65293  1.0000
  O2          0.40796      0.44172      0.48638  1.0000
  O2          0.55412      0.97421      0.81982  1.0000
  O2          0.03583      0.59414      0.15365  1.0000
  O2          0.55838      0.58888      0.33884  1.0000
  O2          0.03032      0.43969      0.00675  1.0000
  O2          0.40111      0.96682      0.67207  1.0000
  O3          0.42734      0.40665      0.83077  1.0000
  O2          0.96660      0.55883      0.50479  1.0000
  O2          0.59297      0.03455      0.17397  1.0000
  O2          0.58388      0.16755      0.24905  1.0000
  O2          0.82816      0.41729      0.57867  1.0000
  O1          0.59741      0.40480      0.91339  1.0000
  O2          0.40930      0.83252      0.74648  1.0000
  O2          0.16959      0.58673      0.07930  1.0000
  O2          0.41389      0.58357      0.41257  1.0000
  F           0.45433      0.90715      0.24674  1.0000
  F           0.08935      0.54675      0.57882  1.0000
  F           0.47778      0.52440      0.90627  1.0000
  F           0.53678      0.08873      0.74500  1.0000
  F           0.90921      0.45624      0.08066  1.0000
  F           0.54588      0.45239      0.41236  1.0000
