data_cif

_audit_creation_method             'generated by GULP'

_symmetry_space_group_name_H-M     'P 1'
_symmetry_Int_Tables_number        1
_symmetry_cell_setting             triclinic

_cell_length_a                       11.9418
_cell_length_b                       11.9383
_cell_length_c                       29.3942
_cell_angle_alpha                   90.0136
_cell_angle_beta                    89.6180
_cell_angle_gamma                  119.5576

loop_
_atom_site_label
_atom_site_fract_x
_atom_site_fract_y
_atom_site_fract_z
_atom_site_occupancy
  Si          0.69960      0.37570      0.03389  1.0000
  Si          0.63415      0.31221      0.36769  1.0000
  Si          0.68202      0.27690      0.69841  1.0000
  Si          0.30889      0.60536      0.53569  1.0000
  Si          0.38635      0.66323      0.86986  1.0000
  Si          0.32662      0.68196      0.19958  1.0000
  Si          0.39376      0.68982      0.30175  1.0000
  Si          0.32820      0.61084      0.97239  1.0000
  Si          0.30374      0.65745      0.63662  1.0000
  Si          0.62805      0.28271      0.79921  1.0000
  Si          0.68818      0.36417      0.46838  1.0000
  Si          0.70292      0.32611      0.13576  1.0000
  Ge          0.53165      0.42202      0.96611  1.0000
  Si          0.59945      0.10589      0.30077  1.0000
  Si          0.89409      0.45239      0.63458  1.0000
  Si          0.48294      0.56873      0.47048  1.0000
  Si          0.42587      0.87242      0.80308  1.0000
  Si          0.10730      0.51696      0.13728  1.0000
  Si          0.43213      0.52011      0.36852  1.0000
  Si          0.11249      0.57226      0.03619  1.0000
  Si          0.47652      0.86632      0.70140  1.0000
  Si          0.59857      0.45451      0.86687  1.0000
  Si          0.89828      0.40200      0.53279  1.0000
  Si          0.53962      0.11178      0.19792  1.0000
  Si          0.31109      0.38211      0.85468  1.0000
  Ge          0.59587      0.89356      0.19223  1.0000
  Si          0.10735      0.68199      0.52010  1.0000
  Si          0.71311      0.59142      0.35385  1.0000
  Si          0.40473      0.07551      0.68604  1.0000
  Si          0.90167      0.29426      0.02199  1.0000
  Si          0.41026      0.28726      0.48455  1.0000
  Si          0.90647      0.59999      0.15084  1.0000
  Si          0.70488      0.08082      0.81594  1.0000
  Si          0.61218      0.69467      0.99019  1.0000
  Si          0.10225      0.37954      0.65039  1.0000
  Si          0.31549      0.89425      0.31692  1.0000
  Si          0.25245      0.32247      0.95715  1.0000
  Si          0.68071      0.90232      0.28771  1.0000
  Si          0.09490      0.73058      0.62090  1.0000
  Si          0.76201      0.64646      0.45493  1.0000
  Si          0.34725      0.07342      0.78691  1.0000
  Si          0.90475      0.24067      0.12289  1.0000
  Si          0.35376      0.24089      0.38360  1.0000
  Si          0.91378      0.65466      0.04971  1.0000
  Si          0.75426      0.06777      0.71511  1.0000
  Si          0.67178      0.73443      0.88647  1.0000
  Si          0.09997      0.32495      0.54941  1.0000
  Si          0.25982      0.90201      0.21533  1.0000
  Si          0.96765      0.11355      0.97079  1.0000
  Si          0.89430      0.84064      0.30503  1.0000
  Si          0.15759      0.01057      0.63640  1.0000
  Si          0.04110      0.86407      0.47023  1.0000
  Si          0.12864      0.13588      0.80390  1.0000
  Si          0.84829      0.96163      0.13972  1.0000
  Si          0.13705      0.96232      0.36955  1.0000
  Si          0.85627      0.87762      0.03823  1.0000
  Si          0.03528      0.13251      0.70233  1.0000
  Si          0.88411      0.01610      0.86938  1.0000
  Si          0.16195      0.10654      0.53530  1.0000
  Si          0.98055      0.84767      0.20238  1.0000
  O2          0.93376      0.99603      0.00416  1.0000
  O2          0.01552      0.91840      0.33755  1.0000
  O2          0.08114      0.05297      0.67092  1.0000
  O2          0.08172      0.98364      0.50365  1.0000
  O2          0.00954      0.05743      0.83801  1.0000
  O2          0.94154      0.93317      0.17190  1.0000
  O2          0.35596      0.56946      0.33587  1.0000
  O2          0.42570      0.73950      0.66966  1.0000
  O2          0.23966      0.64762      0.00356  1.0000
  O2          0.66936      0.41110      0.82888  1.0000
  O2          0.57925      0.24251      0.16914  1.0000
  O2          0.77424      0.32523      0.50026  1.0000
  O3          0.58202      0.33627      0.00193  1.0000
  O2          0.76536      0.40019      0.66575  1.0000
  O2          0.67270      0.22894      0.33401  1.0000
  O2          0.43354      0.64488      0.50339  1.0000
  O2          0.22820      0.55675      0.17115  1.0000
  O2          0.35064      0.74841      0.83660  1.0000
  O2          0.11973      0.20490      0.97547  1.0000
  O2          0.80041      0.90020      0.31340  1.0000
  O2          0.09240      0.85606      0.64093  1.0000
  O2          0.88708      0.77246      0.47510  1.0000
  O2          0.22030      0.07229      0.80754  1.0000
  O2          0.90164      0.11558      0.14486  1.0000
  O2          0.22691      0.11610      0.36380  1.0000
  O2          0.91357      0.78150      0.02976  1.0000
  O2          0.88149      0.06700      0.69567  1.0000
  O2          0.79394      0.86179      0.86505  1.0000
  O2          0.10034      0.19906      0.52887  1.0000
  O2          0.13418      0.90327      0.19619  1.0000
  O2          0.94927      0.85983      0.25456  1.0000
  O2          0.14546      0.05510      0.58638  1.0000
  O2          0.92937      0.05844      0.92023  1.0000
  O2          0.07260      0.12348      0.75380  1.0000
  O2          0.87659      0.93016      0.08882  1.0000
  O2          0.08452      0.92151      0.42022  1.0000
  O2          0.89722      0.19516      0.98284  1.0000
  O2          0.81364      0.68789      0.31590  1.0000
  O2          0.30888      0.07625      0.64736  1.0000
  O2          0.11070      0.78115      0.48157  1.0000
  O2          0.21357      0.28720      0.81603  1.0000
  O3          0.70132      0.88487      0.15048  1.0000
  O2          0.22173      0.89457      0.35680  1.0000
  O2          0.70426      0.80499      0.02600  1.0000
  O2          0.10288      0.28317      0.68923  1.0000
  O2          0.80349      0.08522      0.85434  1.0000
  O2          0.31366      0.18742      0.52292  1.0000
  O2          0.90612      0.69713      0.18947  1.0000
  O2          0.33691      0.63566      0.25165  1.0000
  O2          0.36337      0.65976      0.58634  1.0000
  O2          0.33063      0.66040      0.92040  1.0000
  O2          0.68367      0.33537      0.74844  1.0000
  O2          0.64769      0.32663      0.08580  1.0000
  O2          0.69026      0.30890      0.41782  1.0000
  O3          0.36557      0.30436      0.97590  1.0000
  O2          0.68521      0.03537      0.30394  1.0000
  O2          0.96181      0.60820      0.63872  1.0000
  O2          0.63870      0.65588      0.47344  1.0000
  O2          0.33862      0.94200      0.80629  1.0000
  O2          0.03784      0.36163      0.14075  1.0000
  O2          0.34496      0.36427      0.36527  1.0000
  O2          0.04746      0.66362      0.03191  1.0000
  O2          0.63266      0.93398      0.69789  1.0000
  O2          0.68168      0.61289      0.86692  1.0000
  O2          0.96846      0.31512      0.53035  1.0000
  O2          0.38232      0.03484      0.19848  1.0000
  O2          0.77130      0.29898      0.01435  1.0000
  O2          0.70978      0.45574      0.34572  1.0000
  O2          0.53822      0.20805      0.67711  1.0000
  O2          0.24160      0.68150      0.51310  1.0000
  O2          0.31526      0.51910      0.84911  1.0000
  O3          0.46305      0.74333      0.17535  1.0000
  O2          0.32022      0.76246      0.32239  1.0000
  O2          0.47267      0.68903      0.99228  1.0000
  O2          0.23455      0.51356      0.65854  1.0000
  O2          0.70151      0.21362      0.82256  1.0000
  O2          0.54520      0.28793      0.49126  1.0000
  O2          0.77182      0.46814      0.15876  1.0000
  O2          0.79023      0.53167      0.02910  1.0000
  O2          0.47811      0.23744      0.36350  1.0000
  O2          0.75426      0.19235      0.69385  1.0000
  O2          0.22738      0.44982      0.53043  1.0000
  O2          0.54062      0.72666      0.86872  1.0000
  O2          0.26464      0.77741      0.19764  1.0000
  O2          0.54829      0.77693      0.30527  1.0000
  O2          0.26399      0.45662      0.97523  1.0000
  O2          0.22063      0.73130      0.64112  1.0000
  O2          0.47206      0.20155      0.80496  1.0000
  O2          0.76204      0.51986      0.47407  1.0000
  O2          0.78179      0.24872      0.14152  1.0000
  O2          0.24320      0.31291      0.90175  1.0000
  O3          0.70621      0.89956      0.23517  1.0000
  O2          0.09941      0.75116      0.56646  1.0000
  O2          0.78203      0.66393      0.40055  1.0000
  O2          0.32935      0.07276      0.73245  1.0000
  O2          0.90445      0.22217      0.06829  1.0000
  O2          0.33584      0.21975      0.43802  1.0000
  O2          0.91160      0.67407      0.10416  1.0000
  O2          0.77462      0.07415      0.76945  1.0000
  O2          0.68404      0.74987      0.94075  1.0000
  O2          0.10007      0.30598      0.60387  1.0000
  O2          0.24870      0.89902      0.27025  1.0000
  O3          0.60224      0.56216      0.00242  1.0000
  O2          0.45727      0.01523      0.32207  1.0000
  O2          0.97609      0.39360      0.65854  1.0000
  O2          0.42525      0.42723      0.49366  1.0000
  O2          0.56707      0.95428      0.82568  1.0000
  O2          0.03055      0.58333      0.16055  1.0000
  O2          0.57392      0.57893      0.34547  1.0000
  O2          0.03068      0.43131      0.01295  1.0000
  O2          0.41877      0.94952      0.67775  1.0000
  O2          0.45286      0.40189      0.84708  1.0000
  O2          0.98329      0.54361      0.51010  1.0000
  O3          0.59778      0.03465      0.17218  1.0000
  O2          0.59465      0.15478      0.24993  1.0000
  O2          0.84335      0.40169      0.58352  1.0000
  O3          0.60420      0.39887      0.91492  1.0000
  O2          0.42390      0.81507      0.75271  1.0000
  O2          0.16738      0.57281      0.08687  1.0000
  O2          0.43029      0.57100      0.41971  1.0000
  F           0.49264      0.89559      0.24103  1.0000
  F           0.10387      0.53116      0.58514  1.0000
  F           0.47864      0.51333      0.92906  1.0000
  F           0.55270      0.07480      0.75097  1.0000
  F           0.91244      0.45241      0.08699  1.0000
  F           0.56065      0.43867      0.41894  1.0000
