data_cif

_audit_creation_method             'generated by GULP'

_symmetry_space_group_name_H-M     'P 1'
_symmetry_Int_Tables_number        1
_symmetry_cell_setting             triclinic

_cell_length_a                       11.9436
_cell_length_b                       11.9718
_cell_length_c                       29.4752
_cell_angle_alpha                   89.8507
_cell_angle_beta                    90.2993
_cell_angle_gamma                  119.9220

loop_
_atom_site_label
_atom_site_fract_x
_atom_site_fract_y
_atom_site_fract_z
_atom_site_occupancy
  Si          0.69960      0.37570      0.03389  1.0000
  Si          0.63217      0.32616      0.36676  1.0000
  Si          0.67672      0.28297      0.70086  1.0000
  Si          0.30596      0.61499      0.53198  1.0000
  Si          0.38263      0.66394      0.86808  1.0000
  Si          0.33214      0.70480      0.20069  1.0000
  Si          0.38842      0.70480      0.30152  1.0000
  Si          0.32480      0.61499      0.97022  1.0000
  Si          0.29707      0.66394      0.63413  1.0000
  Si          0.62201      0.28297      0.80135  1.0000
  Si          0.69187      0.37570      0.46832  1.0000
  Si          0.70976      0.32616      0.13545  1.0000
  Ge          0.53057      0.42504      0.96716  1.0000
  Si          0.59277      0.11568      0.30189  1.0000
  Si          0.87671      0.45605      0.63390  1.0000
  Si          0.48265      0.57924      0.46847  1.0000
  Si          0.41867      0.87209      0.80167  1.0000
  Si          0.12127      0.53335      0.13500  1.0000
  Si          0.42784      0.53335      0.36721  1.0000
  Si          0.11236      0.57924      0.03374  1.0000
  Si          0.46919      0.87209      0.70054  1.0000
  Si          0.59510      0.45605      0.86831  1.0000
  Ge          0.91023      0.42504      0.53505  1.0000
  Si          0.53867      0.11568      0.20032  1.0000
  Si          0.30728      0.38241      0.85435  1.0000
  Si          0.61035      0.90680      0.18593  1.0000
  Si          0.10499      0.69782      0.51323  1.0000
  Si          0.70854      0.60444      0.35305  1.0000
  Si          0.39794      0.08080      0.68647  1.0000
  Si          0.90374      0.29965      0.01993  1.0000
  Si          0.41168      0.29965      0.48228  1.0000
  Si          0.91166      0.60444      0.14916  1.0000
  Si          0.69863      0.08080      0.81573  1.0000
  Si          0.60860      0.69782      0.98897  1.0000
  Si          0.09090      0.38241      0.64785  1.0000
  Si          0.31221      0.90680      0.31628  1.0000
  Si          0.25098      0.32718      0.95654  1.0000
  Si          0.66931      0.91399      0.28651  1.0000
  Si          0.08327      0.73628      0.61626  1.0000
  Si          0.76124      0.65745      0.45396  1.0000
  Si          0.34020      0.07306      0.78702  1.0000
  Si          0.91974      0.25477      0.12050  1.0000
  Si          0.35080      0.25478      0.38170  1.0000
  Si          0.91197      0.65744      0.04824  1.0000
  Si          0.74862      0.07305      0.71519  1.0000
  Si          0.66877      0.73628      0.88595  1.0000
  Si          0.09197      0.32718      0.54567  1.0000
  Si          0.26044      0.91398      0.21570  1.0000
  Si          0.96663      0.11756      0.96922  1.0000
  Si          0.88752      0.85167      0.30155  1.0000
  Si          0.15259      0.01801      0.63414  1.0000
  Si          0.04179      0.88104      0.46624  1.0000
  Si          0.12348      0.13711      0.80203  1.0000
  Si          0.85949      0.97617      0.13629  1.0000
  Si          0.13245      0.97617      0.36592  1.0000
  Si          0.85501      0.88104      0.03597  1.0000
  Si          0.02940      0.13711      0.70018  1.0000
  Si          0.88119      0.01801      0.86807  1.0000
  Si          0.16670      0.11756      0.53299  1.0000
  Si          0.97992      0.85167      0.20066  1.0000
  O2          0.93171      0.99813      0.00168  1.0000
  O2          0.01161      0.93497      0.33286  1.0000
  O2          0.07228      0.05865      0.66733  1.0000
  O2          0.08218      0.99813      0.50053  1.0000
  O2          0.00213      0.05865      0.83488  1.0000
  O2          0.93913      0.93497      0.16935  1.0000
  O2          0.35098      0.58285      0.33474  1.0000
  O2          0.41743      0.74643      0.66790  1.0000
  O2          0.23754      0.65391      0.00042  1.0000
  O2          0.66522      0.41056      0.83144  1.0000
  O2          0.58736      0.24165      0.16832  1.0000
  O3          0.77442      0.33749      0.49921  1.0000
  O3          0.57884      0.33749      0.00300  1.0000
  O2          0.76111      0.41056      0.67076  1.0000
  O2          0.67006      0.24165      0.33389  1.0000
  O2          0.43214      0.65391      0.50179  1.0000
  O2          0.24764      0.58285      0.16747  1.0000
  O2          0.34477      0.74643      0.83431  1.0000
  O2          0.11873      0.20977      0.97535  1.0000
  O2          0.79624      0.91462      0.30668  1.0000
  O2          0.08720      0.86315      0.63746  1.0000
  O2          0.88924      0.78390      0.47360  1.0000
  O2          0.21270      0.07131      0.80681  1.0000
  O2          0.92158      0.12996      0.14131  1.0000
  O2          0.22415      0.12997      0.36090  1.0000
  O2          0.91042      0.78390      0.02861  1.0000
  O2          0.87438      0.07131      0.69540  1.0000
  O2          0.79172      0.86315      0.86475  1.0000
  O2          0.10681      0.20977      0.52686  1.0000
  O2          0.13414      0.91462      0.19553  1.0000
  O2          0.93820      0.86063      0.25110  1.0000
  O2          0.14813      0.06453      0.58396  1.0000
  O2          0.93216      0.06453      0.91825  1.0000
  O2          0.07239      0.12901      0.75110  1.0000
  O2          0.87722      0.93663      0.08622  1.0000
  O2          0.07518      0.93663      0.41599  1.0000
  O2          0.89569      0.19809      0.98124  1.0000
  O2          0.80715      0.70136      0.31501  1.0000
  O2          0.30265      0.08429      0.64806  1.0000
  O2          0.12290      0.80917      0.47750  1.0000
  O2          0.20974      0.28764      0.81533  1.0000
  O2          0.70709      0.90580      0.14745  1.0000
  O2          0.21447      0.90580      0.35476  1.0000
  O2          0.70204      0.80917      0.02470  1.0000
  O2          0.09367      0.28764      0.68688  1.0000
  O2          0.79740      0.08429      0.85415  1.0000
  O2          0.31816      0.19809      0.52096  1.0000
  O2          0.90998      0.70136      0.18720  1.0000
  O2          0.33159      0.64742      0.25110  1.0000
  O2          0.35115      0.66286      0.58407  1.0000
  O2          0.32748      0.66286      0.91814  1.0000
  O2          0.67649      0.33722      0.75110  1.0000
  O2          0.65183      0.32566      0.08567  1.0000
  O2          0.68960      0.32567      0.41654  1.0000
  O3          0.36353      0.30917      0.97631  1.0000
  O2          0.68008      0.04643      0.30499  1.0000
  O2          0.95176      0.61444      0.63493  1.0000
  O2          0.63885      0.66885      0.47237  1.0000
  O2          0.33066      0.94036      0.80529  1.0000
  O2          0.05289      0.37723      0.13858  1.0000
  O2          0.34010      0.37723      0.36362  1.0000
  O2          0.04577      0.66885      0.02983  1.0000
  O2          0.62547      0.94036      0.69692  1.0000
  O2          0.67844      0.61444      0.86728  1.0000
  O3          0.96141      0.30917      0.52590  1.0000
  O2          0.38212      0.04643      0.19722  1.0000
  O2          0.77053      0.30027      0.01330  1.0000
  O2          0.70545      0.46950      0.34454  1.0000
  O2          0.53288      0.21290      0.67863  1.0000
  O2          0.23905      0.69335      0.51169  1.0000
  O2          0.31174      0.51896      0.84797  1.0000
  O2          0.47575      0.77317      0.17849  1.0000
  O2          0.31318      0.77317      0.32372  1.0000
  O2          0.47007      0.69335      0.99052  1.0000
  O2          0.22298      0.51896      0.65424  1.0000
  O2          0.69579      0.21290      0.82358  1.0000
  O2          0.54551      0.30027      0.48891  1.0000
  O2          0.77981      0.46949      0.15767  1.0000
  O2          0.78770      0.53232      0.02820  1.0000
  O2          0.47586      0.25350      0.36217  1.0000
  O2          0.74985      0.19969      0.69566  1.0000
  O2          0.21584      0.46094      0.52864  1.0000
  O2          0.53746      0.72802      0.86745  1.0000
  O2          0.25835      0.78725      0.19618  1.0000
  O2          0.54467      0.78725      0.30603  1.0000
  O2          0.26086      0.46093      0.97356  1.0000
  O2          0.20633      0.72802      0.63476  1.0000
  O2          0.46561      0.19969      0.80655  1.0000
  O2          0.76039      0.53232      0.47400  1.0000
  O2          0.79341      0.25350      0.14004  1.0000
  O2          0.23958      0.31444      0.90131  1.0000
  O2          0.68632      0.91193      0.23222  1.0000
  O2          0.08747      0.75311      0.56213  1.0000
  O2          0.78009      0.67601      0.39969  1.0000
  O2          0.32322      0.07614      0.73275  1.0000
  O2          0.91469      0.23227      0.06624  1.0000
  O2          0.33334      0.23227      0.43596  1.0000
  O2          0.91168      0.67600      0.10252  1.0000
  O2          0.76868      0.07614      0.76946  1.0000
  O2          0.68141      0.75311      0.94008  1.0000
  O2          0.09063      0.31444      0.60090  1.0000
  O2          0.24138      0.91193      0.26999  1.0000
  O3          0.60019      0.56683      0.00247  1.0000
  O2          0.45184      0.03192      0.32521  1.0000
  O2          0.96840      0.40169      0.65453  1.0000
  O2          0.42324      0.43813      0.49219  1.0000
  O2          0.56047      0.95341      0.82478  1.0000
  O2          0.03911      0.59302      0.15784  1.0000
  O2          0.56968      0.59303      0.34437  1.0000
  O2          0.03066      0.43813      0.01001  1.0000
  O2          0.40871      0.95341      0.67743  1.0000
  O2          0.44906      0.40169      0.84768  1.0000
  O3          0.98241      0.56683      0.49973  1.0000
  O2          0.59584      0.03192      0.17700  1.0000
  O2          0.59217      0.16858      0.25110  1.0000
  O3          0.81555      0.40230      0.58573  1.0000
  O3          0.60251      0.40230      0.91648  1.0000
  O2          0.41612      0.81646      0.75110  1.0000
  O2          0.17337      0.58419      0.08378  1.0000
  O2          0.42659      0.58419      0.41843  1.0000
  F           0.46164      0.90751      0.25110  1.0000
  F           0.05480      0.51552      0.57333  1.0000
  F           0.47648      0.51552      0.92888  1.0000
  F           0.54523      0.07470      0.75110  1.0000
  F           0.91717      0.45647      0.08430  1.0000
  F           0.55507      0.45647      0.41791  1.0000
