data_cif

_audit_creation_method             'generated by GULP'

_symmetry_space_group_name_H-M     'P 1'
_symmetry_Int_Tables_number        1
_symmetry_cell_setting             triclinic

_cell_length_a                       11.9430
_cell_length_b                       11.9367
_cell_length_c                       29.4329
_cell_angle_alpha                   89.6432
_cell_angle_beta                    90.2588
_cell_angle_gamma                  119.6632

loop_
_atom_site_label
_atom_site_fract_x
_atom_site_fract_y
_atom_site_fract_z
_atom_site_occupancy
  Si          0.69960      0.37570      0.03389  1.0000
  Si          0.62562      0.31929      0.36742  1.0000
  Si          0.67963      0.28610      0.69769  1.0000
  Si          0.30395      0.61290      0.53533  1.0000
  Si          0.38523      0.67349      0.86870  1.0000
  Si          0.32956      0.70056      0.20120  1.0000
  Si          0.38535      0.70040      0.30207  1.0000
  Si          0.32632      0.61548      0.97093  1.0000
  Si          0.29952      0.66386      0.63611  1.0000
  Si          0.63189      0.29407      0.79857  1.0000
  Si          0.68137      0.37186      0.46798  1.0000
  Si          0.70721      0.32398      0.13573  1.0000
  Ge          0.53208      0.42407      0.96533  1.0000
  Si          0.58776      0.11027      0.30227  1.0000
  Si          0.89085      0.45948      0.63382  1.0000
  Si          0.47592      0.57631      0.46988  1.0000
  Si          0.42689      0.88513      0.80248  1.0000
  Si          0.11839      0.52915      0.13631  1.0000
  Si          0.42231      0.52730      0.36801  1.0000
  Si          0.11335      0.57803      0.03489  1.0000
  Si          0.47147      0.87435      0.70100  1.0000
  Si          0.60320      0.46329      0.86633  1.0000
  Si          0.89306      0.40931      0.53224  1.0000
  Si          0.53521      0.11253      0.20051  1.0000
  Ge          0.31146      0.38889      0.85354  1.0000
  Si          0.60696      0.90249      0.18638  1.0000
  Si          0.10220      0.69020      0.51926  1.0000
  Si          0.70316      0.59841      0.35352  1.0000
  Si          0.40093      0.08530      0.68567  1.0000
  Si          0.90448      0.29916      0.02088  1.0000
  Si          0.40402      0.29493      0.48358  1.0000
  Si          0.90928      0.60098      0.15037  1.0000
  Si          0.70740      0.09075      0.81470  1.0000
  Si          0.60971      0.69775      0.98890  1.0000
  Si          0.09841      0.38568      0.64999  1.0000
  Si          0.30824      0.90215      0.31671  1.0000
  Si          0.25157      0.32543      0.95665  1.0000
  Si          0.66536      0.90867      0.28712  1.0000
  Si          0.09148      0.73768      0.61999  1.0000
  Si          0.75449      0.65379      0.45435  1.0000
  Si          0.34923      0.08670      0.78651  1.0000
  Si          0.91706      0.25174      0.12159  1.0000
  Si          0.34464      0.24757      0.38277  1.0000
  Si          0.91249      0.65623      0.04938  1.0000
  Si          0.75078      0.07563      0.71394  1.0000
  Si          0.67116      0.74165      0.88581  1.0000
  Si          0.09475      0.33181      0.54911  1.0000
  Si          0.25756      0.91062      0.21597  1.0000
  Si          0.96868      0.11814      0.97008  1.0000
  Si          0.88390      0.84646      0.30281  1.0000
  Si          0.15281      0.01714      0.63483  1.0000
  Si          0.03430      0.87150      0.46865  1.0000
  Si          0.12444      0.14176      0.80165  1.0000
  Si          0.85638      0.97250      0.13713  1.0000
  Si          0.12723      0.96825      0.36780  1.0000
  Si          0.85483      0.87957      0.03664  1.0000
  Si          0.02945      0.13594      0.70043  1.0000
  Si          0.88567      0.02346      0.86832  1.0000
  Si          0.15644      0.11361      0.53379  1.0000
  Si          0.97729      0.84776      0.20182  1.0000
  O2          0.93089      0.99659      0.00218  1.0000
  O2          0.00468      0.92683      0.33566  1.0000
  O2          0.07324      0.05828      0.66774  1.0000
  O2          0.07618      0.99270      0.50127  1.0000
  O2          0.00791      0.05989      0.83646  1.0000
  O2          0.93459      0.93036      0.17071  1.0000
  O2          0.34643      0.57753      0.33538  1.0000
  O2          0.42103      0.74709      0.66967  1.0000
  O2          0.23893      0.65285      0.00195  1.0000
  O2          0.67675      0.42157      0.82914  1.0000
  O2          0.58405      0.23883      0.16841  1.0000
  O2          0.76811      0.33261      0.49983  1.0000
  O3          0.58145      0.33756      0.00193  1.0000
  O2          0.76266      0.40865      0.66481  1.0000
  O2          0.66441      0.23553      0.33457  1.0000
  O2          0.42754      0.65223      0.50298  1.0000
  O2          0.24478      0.57804      0.16860  1.0000
  O2          0.35212      0.76377      0.83693  1.0000
  O2          0.12028      0.20934      0.97732  1.0000
  O2          0.79251      0.90979      0.30737  1.0000
  O2          0.08974      0.86300      0.64014  1.0000
  O2          0.88053      0.77984      0.47438  1.0000
  O2          0.22557      0.08889      0.80785  1.0000
  O2          0.91786      0.12607      0.14262  1.0000
  O2          0.21754      0.12262      0.36281  1.0000
  O2          0.91193      0.78348      0.02959  1.0000
  O2          0.87568      0.07328      0.69365  1.0000
  O2          0.79291      0.86930      0.86496  1.0000
  O2          0.09437      0.20612      0.52844  1.0000
  O2          0.13111      0.91091      0.19580  1.0000
  O2          0.93894      0.85815      0.25281  1.0000
  O2          0.14100      0.05902      0.58435  1.0000
  O2          0.93427      0.06768      0.91892  1.0000
  O2          0.06521      0.11782      0.75136  1.0000
  O2          0.87560      0.93455      0.08699  1.0000
  O2          0.07401      0.92608      0.41827  1.0000
  O2          0.89731      0.19862      0.98212  1.0000
  O2          0.80144      0.69510      0.31528  1.0000
  O2          0.30399      0.08599      0.64713  1.0000
  O2          0.10483      0.78943      0.48074  1.0000
  O3          0.20171      0.29171      0.81194  1.0000
  O2          0.70391      0.90189      0.14789  1.0000
  O2          0.21014      0.89962      0.35534  1.0000
  O2          0.70217      0.80592      0.02546  1.0000
  O2          0.09879      0.28825      0.68888  1.0000
  O2          0.80693      0.09468      0.85307  1.0000
  O2          0.30804      0.19518      0.52193  1.0000
  O2          0.90724      0.69727      0.18875  1.0000
  O2          0.32928      0.64311      0.25174  1.0000
  O2          0.35929      0.66668      0.58612  1.0000
  O2          0.33249      0.66998      0.91971  1.0000
  O2          0.68448      0.34591      0.74761  1.0000
  O2          0.65058      0.32496      0.08578  1.0000
  O2          0.68204      0.31615      0.41768  1.0000
  O3          0.36647      0.30939      0.97589  1.0000
  O2          0.67539      0.04103      0.30556  1.0000
  O2          0.95878      0.61537      0.63792  1.0000
  O2          0.63199      0.66352      0.47301  1.0000
  O2          0.34041      0.95514      0.80597  1.0000
  O2          0.04977      0.37291      0.14011  1.0000
  O2          0.33473      0.37122      0.36503  1.0000
  O2          0.04623      0.66757      0.03109  1.0000
  O2          0.62749      0.94191      0.69745  1.0000
  O2          0.68543      0.62157      0.86789  1.0000
  O2          0.96289      0.32225      0.53007  1.0000
  O2          0.37895      0.04334      0.19756  1.0000
  O2          0.77204      0.30079      0.01398  1.0000
  O2          0.70127      0.46342      0.34564  1.0000
  O2          0.53486      0.21754      0.67672  1.0000
  O2          0.23635      0.68947      0.51290  1.0000
  O3          0.30993      0.53248      0.84790  1.0000
  O2          0.47298      0.76901      0.17898  1.0000
  O2          0.30979      0.76849      0.32434  1.0000
  O2          0.47029      0.69035      0.99203  1.0000
  O2          0.23122      0.51994      0.65836  1.0000
  O2          0.70563      0.22409      0.82145  1.0000
  O2          0.53899      0.29577      0.49097  1.0000
  O2          0.77678      0.46661      0.15844  1.0000
  O2          0.78829      0.53242      0.02922  1.0000
  O2          0.46965      0.24677      0.36273  1.0000
  O2          0.75034      0.20046      0.69298  1.0000
  O2          0.22177      0.45723      0.53032  1.0000
  O2          0.53922      0.73022      0.86696  1.0000
  O2          0.25655      0.78417      0.19658  1.0000
  O2          0.54130      0.78166      0.30689  1.0000
  O2          0.26193      0.46107      0.97229  1.0000
  O2          0.21764      0.73870      0.64040  1.0000
  O2          0.47573      0.21448      0.80449  1.0000
  O2          0.75612      0.52779      0.47367  1.0000
  O2          0.79010      0.25017      0.14075  1.0000
  O3          0.23519      0.30692      0.90217  1.0000
  O2          0.68240      0.90666      0.23277  1.0000
  O2          0.09496      0.75862      0.56564  1.0000
  O2          0.77330      0.67187      0.40002  1.0000
  O2          0.32856      0.08506      0.73216  1.0000
  O2          0.91388      0.23031      0.06730  1.0000
  O2          0.32869      0.22642      0.43716  1.0000
  O2          0.91119      0.67445      0.10375  1.0000
  O2          0.77500      0.08335      0.76817  1.0000
  O2          0.68046      0.75660      0.94009  1.0000
  O2          0.09570      0.31239      0.60355  1.0000
  O2          0.23805      0.90812      0.27036  1.0000
  O3          0.60191      0.56524      0.00006  1.0000
  O2          0.44708      0.02732      0.32573  1.0000
  O2          0.97247      0.39984      0.65807  1.0000
  O2          0.41794      0.43434      0.49286  1.0000
  O2          0.56955      0.96462      0.82481  1.0000
  O2          0.03629      0.58885      0.15949  1.0000
  O2          0.56352      0.58471      0.34509  1.0000
  O2          0.03166      0.43732      0.01131  1.0000
  O2          0.41354      0.95843      0.67778  1.0000
  O3          0.46210      0.41258      0.84327  1.0000
  O2          0.97831      0.55105      0.50959  1.0000
  O2          0.59204      0.02786      0.17751  1.0000
  O2          0.58776      0.16440      0.25148  1.0000
  O2          0.83907      0.40877      0.58285  1.0000
  O3          0.60480      0.40394      0.91456  1.0000
  O2          0.42090      0.82466      0.75251  1.0000
  O2          0.17199      0.58111      0.08523  1.0000
  O2          0.42243      0.57877      0.41914  1.0000
  F           0.45848      0.90299      0.25210  1.0000
  F           0.09980      0.53813      0.58532  1.0000
  F           0.47341      0.51233      0.92626  1.0000
  F           0.55162      0.08467      0.75091  1.0000
  F           0.91620      0.45451      0.08596  1.0000
  F           0.55348      0.44682      0.41917  1.0000
