data_cif

_audit_creation_method             'generated by GULP'

_symmetry_space_group_name_H-M     'P 1'
_symmetry_Int_Tables_number        1
_symmetry_cell_setting             triclinic

_cell_length_a                       11.9757
_cell_length_b                       11.9253
_cell_length_c                       29.3931
_cell_angle_alpha                   89.0874
_cell_angle_beta                    90.2903
_cell_angle_gamma                  119.7297

loop_
_atom_site_label
_atom_site_fract_x
_atom_site_fract_y
_atom_site_fract_z
_atom_site_occupancy
  Si          0.69960      0.37570      0.03389  1.0000
  Si          0.61841      0.30781      0.36717  1.0000
  Si          0.67710      0.28865      0.69758  1.0000
  Si          0.31332      0.61791      0.53266  1.0000
  Si          0.38437      0.67016      0.86917  1.0000
  Si          0.32573      0.69481      0.20213  1.0000
  Si          0.38108      0.69390      0.30305  1.0000
  Si          0.32621      0.61523      0.97169  1.0000
  Si          0.30120      0.67254      0.63473  1.0000
  Si          0.62479      0.29194      0.79840  1.0000
  Si          0.67037      0.35364      0.46777  1.0000
  Si          0.70461      0.32019      0.13588  1.0000
  Ge          0.53059      0.42450      0.96614  1.0000
  Si          0.58206      0.10106      0.30212  1.0000
  Si          0.88564      0.46441      0.63180  1.0000
  Si          0.47982      0.56582      0.47051  1.0000
  Si          0.42245      0.88129      0.80222  1.0000
  Si          0.11573      0.52571      0.13700  1.0000
  Si          0.42107      0.52086      0.36906  1.0000
  Si          0.11300      0.57829      0.03536  1.0000
  Si          0.47124      0.87874      0.70054  1.0000
  Si          0.59590      0.46043      0.86665  1.0000
  Si          0.88473      0.40338      0.52907  1.0000
  Si          0.53082      0.10592      0.20037  1.0000
  Si          0.30923      0.38891      0.85450  1.0000
  Si          0.60278      0.89640      0.18676  1.0000
  Ge          0.10176      0.67666      0.52444  1.0000
  Si          0.70106      0.58940      0.35448  1.0000
  Si          0.39897      0.08831      0.68505  1.0000
  Si          0.90424      0.30010      0.02117  1.0000
  Si          0.39632      0.28122      0.48397  1.0000
  Si          0.90662      0.59720      0.15079  1.0000
  Si          0.70161      0.08931      0.81533  1.0000
  Si          0.60921      0.69661      0.98951  1.0000
  Si          0.09719      0.39056      0.64908  1.0000
  Si          0.30192      0.89430      0.31774  1.0000
  Si          0.25184      0.32697      0.95701  1.0000
  Si          0.66150      0.90105      0.28755  1.0000
  Si          0.08855      0.74841      0.61998  1.0000
  Si          0.75710      0.64082      0.45548  1.0000
  Si          0.34349      0.08270      0.78614  1.0000
  Si          0.91431      0.24834      0.12191  1.0000
  Si          0.33909      0.23885      0.38298  1.0000
  Si          0.91218      0.65570      0.04954  1.0000
  Si          0.74914      0.07914      0.71459  1.0000
  Si          0.66912      0.74032      0.88601  1.0000
  Si          0.09416      0.33173      0.54748  1.0000
  Si          0.25344      0.90439      0.21650  1.0000
  Si          0.96690      0.11876      0.97019  1.0000
  Si          0.88045      0.83950      0.30361  1.0000
  Si          0.15011      0.02270      0.63714  1.0000
  Si          0.03605      0.86302      0.47107  1.0000
  Si          0.12537      0.14418      0.80373  1.0000
  Si          0.85276      0.96787      0.13777  1.0000
  Si          0.12140      0.96052      0.36924  1.0000
  Si          0.85355      0.87874      0.03709  1.0000
  Si          0.02913      0.14379      0.70251  1.0000
  Si          0.88154      0.02335      0.86890  1.0000
  Si          0.14742      0.10587      0.53444  1.0000
  Si          0.97419      0.84266      0.20246  1.0000
  O2          0.93144      0.99883      0.00335  1.0000
  O2          0.99966      0.91919      0.33671  1.0000
  O2          0.07656      0.06779      0.67121  1.0000
  O2          0.06456      0.98452      0.50304  1.0000
  O2          0.00694      0.06477      0.83796  1.0000
  O2          0.93124      0.92585      0.17138  1.0000
  O2          0.34432      0.57146      0.33691  1.0000
  O2          0.42113      0.75295      0.66869  1.0000
  O2          0.23943      0.65350      0.00240  1.0000
  O2          0.66618      0.41891      0.82848  1.0000
  O2          0.58049      0.23349      0.16815  1.0000
  O2          0.75536      0.31244      0.50031  1.0000
  O3          0.58139      0.33769      0.00202  1.0000
  O2          0.75993      0.41142      0.66412  1.0000
  O2          0.65815      0.22614      0.33408  1.0000
  O2          0.44017      0.64578      0.50481  1.0000
  O2          0.24080      0.57288      0.16952  1.0000
  O2          0.34793      0.75568      0.83570  1.0000
  O2          0.11904      0.20826      0.97518  1.0000
  O2          0.78823      0.90188      0.30769  1.0000
  O2          0.08918      0.86920      0.64561  1.0000
  O2          0.88207      0.76260      0.47658  1.0000
  O2          0.21677      0.08035      0.80680  1.0000
  O2          0.91411      0.12163      0.14294  1.0000
  O2          0.21244      0.11518      0.36271  1.0000
  O2          0.91111      0.78334      0.02971  1.0000
  O2          0.87572      0.07828      0.69546  1.0000
  O2          0.79127      0.86878      0.86473  1.0000
  O2          0.09334      0.20575      0.52797  1.0000
  O2          0.12763      0.90531      0.19616  1.0000
  O2          0.93639      0.85246      0.25354  1.0000
  O2          0.12951      0.05928      0.58668  1.0000
  O2          0.92734      0.06532      0.91966  1.0000
  O2          0.06726      0.13431      0.75397  1.0000
  O2          0.87249      0.93050      0.08769  1.0000
  O2          0.06890      0.92146      0.41992  1.0000
  O2          0.89838      0.20129      0.98219  1.0000
  O2          0.79843      0.68745      0.31592  1.0000
  O2          0.30293      0.09220      0.64681  1.0000
  O3          0.11263      0.79229      0.48262  1.0000
  O2          0.21118      0.29531      0.81585  1.0000
  O2          0.70038      0.89665      0.14835  1.0000
  O2          0.20411      0.89165      0.35635  1.0000
  O2          0.70181      0.80650      0.02525  1.0000
  O2          0.09543      0.29562      0.68927  1.0000
  O2          0.80101      0.09282      0.85360  1.0000
  O2          0.29912      0.18244      0.52267  1.0000
  O2          0.90396      0.69228      0.18921  1.0000
  O2          0.32498      0.63629      0.25282  1.0000
  O2          0.35715      0.67147      0.58481  1.0000
  O2          0.32906      0.66614      0.91958  1.0000
  O2          0.67964      0.34660      0.74752  1.0000
  O2          0.64965      0.32337      0.08576  1.0000
  O2          0.67278      0.30027      0.41743  1.0000
  O3          0.36426      0.30776      0.97616  1.0000
  O2          0.67055      0.03303      0.30558  1.0000
  O2          0.95512      0.61991      0.63579  1.0000
  O2          0.63478      0.65151      0.47326  1.0000
  O2          0.33533      0.95049      0.80547  1.0000
  O2          0.04654      0.36903      0.14049  1.0000
  O2          0.33237      0.36488      0.36552  1.0000
  O2          0.04643      0.66835      0.03134  1.0000
  O2          0.62706      0.94661      0.69695  1.0000
  O2          0.67884      0.61927      0.86662  1.0000
  O2          0.96200      0.32272      0.53035  1.0000
  O2          0.37495      0.03718      0.19752  1.0000
  O2          0.77198      0.30127      0.01386  1.0000
  O2          0.69544      0.45315      0.34571  1.0000
  O2          0.53346      0.22048      0.67628  1.0000
  O3          0.25299      0.69447      0.50821  1.0000
  O2          0.31344      0.52614      0.84866  1.0000
  O2          0.46884      0.76292      0.17952  1.0000
  O2          0.30443      0.76058      0.32511  1.0000
  O2          0.47087      0.69203      0.99160  1.0000
  O2          0.22800      0.52607      0.65522  1.0000
  O2          0.69870      0.22232      0.82166  1.0000
  O2          0.52839      0.27695      0.49103  1.0000
  O2          0.77409      0.46230      0.15862  1.0000
  O2          0.78884      0.53260      0.02891  1.0000
  O2          0.46297      0.23675      0.36269  1.0000
  O2          0.75103      0.20591      0.69354  1.0000
  O2          0.21902      0.46116      0.53019  1.0000
  O2          0.53841      0.73362      0.86815  1.0000
  O2          0.25233      0.77798      0.19728  1.0000
  O2          0.53671      0.77446      0.30755  1.0000
  O2          0.26230      0.46051      0.97472  1.0000
  O2          0.21324      0.73990      0.63809  1.0000
  O2          0.46903      0.21024      0.80417  1.0000
  O2          0.74855      0.50913      0.47447  1.0000
  O2          0.78740      0.24646      0.14087  1.0000
  O2          0.24209      0.31822      0.90163  1.0000
  O2          0.67820      0.89991      0.23307  1.0000
  O3          0.09339      0.77890      0.56745  1.0000
  O2          0.77420      0.65880      0.40086  1.0000
  O2          0.32549      0.08434      0.73175  1.0000
  O2          0.91246      0.22892      0.06750  1.0000
  O2          0.32090      0.21559      0.43747  1.0000
  O2          0.90954      0.67190      0.10397  1.0000
  O2          0.77013      0.08316      0.76892  1.0000
  O2          0.68165      0.75394      0.94029  1.0000
  O2          0.09565      0.32126      0.60246  1.0000
  O2          0.23359      0.90107      0.27093  1.0000
  O3          0.60031      0.56417      0.00226  1.0000
  O2          0.44171      0.01832      0.32595  1.0000
  O2          0.97536      0.41125      0.65352  1.0000
  O2          0.41527      0.42251      0.49376  1.0000
  O2          0.56357      0.96247      0.82507  1.0000
  O2          0.03284      0.58430      0.15987  1.0000
  O2          0.56291      0.57913      0.34669  1.0000
  O2          0.03179      0.43841      0.01146  1.0000
  O2          0.41228      0.96187      0.67696  1.0000
  O2          0.45024      0.40824      0.84684  1.0000
  O3          0.96285      0.53919      0.50357  1.0000
  O2          0.58798      0.02199      0.17732  1.0000
  O2          0.58285      0.15680      0.25126  1.0000
  O2          0.83943      0.41451      0.58079  1.0000
  O3          0.60188      0.40310      0.91478  1.0000
  O2          0.41959      0.82527      0.75186  1.0000
  O2          0.17029      0.57965      0.08583  1.0000
  O2          0.42276      0.57046      0.42052  1.0000
  F           0.45430      0.89576      0.25200  1.0000
  F           0.09794      0.56929      0.57328  1.0000
  F           0.47717      0.51726      0.92881  1.0000
  F           0.54934      0.08529      0.75007  1.0000
  F           0.91485      0.45262      0.08563  1.0000
  F           0.54791      0.43328      0.42001  1.0000
