data_cif

_audit_creation_method             'generated by GULP'

_symmetry_space_group_name_H-M     'P 1'
_symmetry_Int_Tables_number        1
_symmetry_cell_setting             triclinic

_cell_length_a                       11.9544
_cell_length_b                       11.9610
_cell_length_c                       29.3873
_cell_angle_alpha                   89.5011
_cell_angle_beta                    89.7647
_cell_angle_gamma                  119.8456

loop_
_atom_site_label
_atom_site_fract_x
_atom_site_fract_y
_atom_site_fract_z
_atom_site_occupancy
  Si          0.69960      0.37570      0.03389  1.0000
  Si          0.63705      0.31385      0.36446  1.0000
  Si          0.68935      0.29095      0.69772  1.0000
  Si          0.31211      0.62036      0.53188  1.0000
  Si          0.39140      0.66847      0.86621  1.0000
  Si          0.32661      0.70021      0.19815  1.0000
  Si          0.37354      0.69265      0.29905  1.0000
  Si          0.32866      0.61703      0.96869  1.0000
  Si          0.31171      0.67251      0.63280  1.0000
  Si          0.63250      0.28967      0.79862  1.0000
  Si          0.69405      0.38004      0.46647  1.0000
  Si          0.71000      0.32495      0.13578  1.0000
  Ge          0.53345      0.42622      0.96627  1.0000
  Si          0.58463      0.09558      0.30248  1.0000
  Si          0.90204      0.46766      0.63380  1.0000
  Si          0.48482      0.58678      0.46478  1.0000
  Si          0.43031      0.87889      0.79934  1.0000
  Si          0.11837      0.53035      0.13296  1.0000
  Si          0.42228      0.52810      0.36187  1.0000
  Si          0.11263      0.57953      0.03160  1.0000
  Si          0.48381      0.88014      0.69760  1.0000
  Si          0.60303      0.45909      0.86698  1.0000
  Si          0.90258      0.41819      0.53201  1.0000
  Si          0.53817      0.11097      0.20111  1.0000
  Si          0.31626      0.38704      0.85319  1.0000
  Si          0.60719      0.89959      0.18586  1.0000
  Si          0.11145      0.69898      0.51762  1.0000
  Ge          0.69609      0.58422      0.35668  1.0000
  Si          0.41228      0.08965      0.68378  1.0000
  Si          0.90409      0.30035      0.01898  1.0000
  Si          0.41202      0.30137      0.48135  1.0000
  Si          0.91086      0.60356      0.14907  1.0000
  Si          0.70927      0.08724      0.81358  1.0000
  Si          0.61104      0.69871      0.98816  1.0000
  Si          0.11005      0.39443      0.64848  1.0000
  Si          0.30137      0.89529      0.31550  1.0000
  Si          0.25452      0.32893      0.95567  1.0000
  Si          0.65950      0.89291      0.28680  1.0000
  Si          0.10317      0.74643      0.61872  1.0000
  Si          0.76906      0.66807      0.45229  1.0000
  Si          0.35163      0.07999      0.78467  1.0000
  Si          0.91863      0.25210      0.11966  1.0000
  Si          0.35083      0.24688      0.37970  1.0000
  Si          0.91205      0.65697      0.04757  1.0000
  Si          0.76161      0.08158      0.71270  1.0000
  Si          0.67581      0.73914      0.88474  1.0000
  Si          0.10331      0.34003      0.54756  1.0000
  Si          0.25770      0.91111      0.21461  1.0000
  Si          0.96893      0.11962      0.96854  1.0000
  Si          0.88222      0.83540      0.30330  1.0000
  Si          0.16513      0.02578      0.63462  1.0000
  Si          0.04341      0.88094      0.46888  1.0000
  Si          0.13370      0.14231      0.80178  1.0000
  Si          0.85840      0.97289      0.13606  1.0000
  Si          0.12590      0.96831      0.36635  1.0000
  Si          0.85526      0.88057      0.03537  1.0000
  Si          0.04287      0.14625      0.70026  1.0000
  Si          0.88835      0.02170      0.86723  1.0000
  Si          0.16519      0.12277      0.53372  1.0000
  Si          0.97865      0.84964      0.20132  1.0000
  O2          0.93369      0.00011      0.00154  1.0000
  O2          0.00384      0.92966      0.33496  1.0000
  O2          0.08838      0.06668      0.66921  1.0000
  O2          0.08821      0.00162      0.50176  1.0000
  O2          0.01379      0.06310      0.83580  1.0000
  O2          0.93662      0.93221      0.16983  1.0000
  O2          0.33241      0.56773      0.33222  1.0000
  O2          0.43508      0.75568      0.66516  1.0000
  O2          0.23883      0.65509      0.99813  1.0000
  O2          0.67387      0.41534      0.82942  1.0000
  O2          0.58882      0.23950      0.16978  1.0000
  O2          0.77730      0.34161      0.49994  1.0000
  O3          0.58011      0.33838      0.00291  1.0000
  O2          0.77449      0.41646      0.66569  1.0000
  O2          0.66486      0.21458      0.33674  1.0000
  O2          0.43396      0.65945      0.49815  1.0000
  O2          0.24515      0.58036      0.16457  1.0000
  O2          0.35543      0.75210      0.83212  1.0000
  O2          0.12079      0.21155      0.97419  1.0000
  O2          0.78123      0.88898      0.30823  1.0000
  O2          0.10142      0.87127      0.63911  1.0000
  O2          0.89051      0.78788      0.47761  1.0000
  O2          0.22354      0.07691      0.80496  1.0000
  O2          0.92007      0.12673      0.14046  1.0000
  O2          0.22442      0.12217      0.36049  1.0000
  O2          0.91046      0.78341      0.02751  1.0000
  O2          0.88923      0.08234      0.69315  1.0000
  O2          0.79932      0.86703      0.86358  1.0000
  O2          0.10207      0.21360      0.52743  1.0000
  O2          0.13294      0.91346      0.19437  1.0000
  O2          0.94043      0.85980      0.25232  1.0000
  O2          0.15132      0.07090      0.58475  1.0000
  O2          0.93372      0.06609      0.91784  1.0000
  O2          0.07828      0.13427      0.75179  1.0000
  O2          0.87652      0.93297      0.08600  1.0000
  O2          0.07862      0.93657      0.41830  1.0000
  O2          0.89747      0.19995      0.98022  1.0000
  O3          0.81205      0.68876      0.31522  1.0000
  O2          0.31700      0.09283      0.64523  1.0000
  O2          0.11531      0.79939      0.47938  1.0000
  O2          0.22021      0.29277      0.81435  1.0000
  O2          0.70580      0.90219      0.14711  1.0000
  O2          0.20346      0.89389      0.35436  1.0000
  O2          0.70299      0.80945      0.02385  1.0000
  O2          0.11211      0.29767      0.68724  1.0000
  O2          0.80689      0.08939      0.85193  1.0000
  O2          0.31733      0.20687      0.52113  1.0000
  O2          0.90953      0.69952      0.18746  1.0000
  O2          0.32059      0.63818      0.24844  1.0000
  O2          0.36957      0.67524      0.58217  1.0000
  O2          0.33423      0.66623      0.91635  1.0000
  O2          0.68948      0.34602      0.74805  1.0000
  O2          0.65166      0.32490      0.08612  1.0000
  O2          0.69213      0.32341      0.41650  1.0000
  O3          0.36606      0.31011      0.97561  1.0000
  O2          0.67041      0.02557      0.30494  1.0000
  O2          0.97046      0.62354      0.63720  1.0000
  O2          0.64026      0.67263      0.46829  1.0000
  O2          0.34260      0.94742      0.80330  1.0000
  O2          0.05130      0.37433      0.13727  1.0000
  O2          0.34160      0.37074      0.36291  1.0000
  O2          0.04572      0.66898      0.02827  1.0000
  O2          0.64028      0.94882      0.69468  1.0000
  O2          0.68640      0.61772      0.86621  1.0000
  O2          0.97195      0.33114      0.52886  1.0000
  O2          0.38222      0.04379      0.19714  1.0000
  O2          0.77075      0.30051      0.01301  1.0000
  O3          0.71261      0.45018      0.33997  1.0000
  O2          0.54616      0.22347      0.67581  1.0000
  O2          0.24411      0.69626      0.50985  1.0000
  O2          0.32123      0.52389      0.84630  1.0000
  O2          0.47181      0.76926      0.17680  1.0000
  O2          0.29707      0.75874      0.32207  1.0000
  O2          0.47255      0.69459      0.98935  1.0000
  O2          0.24360      0.52867      0.65538  1.0000
  O2          0.70531      0.21896      0.82122  1.0000
  O2          0.54834      0.30630      0.48725  1.0000
  O2          0.77915      0.46790      0.15775  1.0000
  O2          0.78794      0.53233      0.02808  1.0000
  O2          0.48020      0.25152      0.36206  1.0000
  O2          0.76212      0.20757      0.69244  1.0000
  O2          0.23139      0.46432      0.52779  1.0000
  O2          0.54589      0.73185      0.86580  1.0000
  O2          0.25549      0.78526      0.19420  1.0000
  O2          0.52882      0.76974      0.30547  1.0000
  O2          0.26452      0.46283      0.97251  1.0000
  O2          0.22935      0.74639      0.63803  1.0000
  O2          0.47601      0.20719      0.80363  1.0000
  O2          0.76115      0.53485      0.47026  1.0000
  O2          0.79266      0.25119      0.13978  1.0000
  O2          0.24637      0.31813      0.90030  1.0000
  O2          0.67744      0.89471      0.23216  1.0000
  O2          0.10648      0.76750      0.56432  1.0000
  O3          0.79823      0.69370      0.39975  1.0000
  O2          0.33530      0.08280      0.73020  1.0000
  O2          0.91476      0.23144      0.06523  1.0000
  O2          0.34216      0.23474      0.43465  1.0000
  O2          0.91138      0.67509      0.10200  1.0000
  O2          0.78055      0.08436      0.76708  1.0000
  O2          0.68567      0.75451      0.93902  1.0000
  O2          0.10468      0.32036      0.60201  1.0000
  O2          0.23518      0.90646      0.26909  1.0000
  O3          0.60142      0.56701      0.00179  1.0000
  O2          0.44207      0.01665      0.32573  1.0000
  O2          0.98489      0.40927      0.65747  1.0000
  O2          0.43255      0.44376      0.48601  1.0000
  O2          0.57104      0.95939      0.82247  1.0000
  O2          0.03739      0.59035      0.15676  1.0000
  O3          0.55774      0.58626      0.33635  1.0000
  O2          0.03061      0.43898      0.00817  1.0000
  O2          0.42687      0.96485      0.67447  1.0000
  O2          0.45784      0.40583      0.84659  1.0000
  O2          0.98580      0.56019      0.50886  1.0000
  O2          0.59648      0.02764      0.17830  1.0000
  O2          0.58778      0.15769      0.25265  1.0000
  O2          0.84902      0.41624      0.58305  1.0000
  O3          0.60772      0.40402      0.91548  1.0000
  O2          0.42914      0.82520      0.74861  1.0000
  O2          0.17207      0.58257      0.08159  1.0000
  O2          0.43299      0.58357      0.41379  1.0000
  F           0.45266      0.89682      0.25129  1.0000
  F           0.10982      0.54539      0.58284  1.0000
  F           0.48175      0.51765      0.92780  1.0000
  F           0.55835      0.08504      0.74866  1.0000
  F           0.91696      0.45495      0.08355  1.0000
  F           0.58964      0.48022      0.40557  1.0000
