data_cif

_audit_creation_method             'generated by GULP'

_symmetry_space_group_name_H-M     'P 1'
_symmetry_Int_Tables_number        1
_symmetry_cell_setting             triclinic

_cell_length_a                       11.9545
_cell_length_b                       11.9271
_cell_length_c                       29.3958
_cell_angle_alpha                   89.1281
_cell_angle_beta                    90.5303
_cell_angle_gamma                  119.5692

loop_
_atom_site_label
_atom_site_fract_x
_atom_site_fract_y
_atom_site_fract_z
_atom_site_occupancy
  Si          0.69960      0.37570      0.03389  1.0000
  Si          0.62811      0.31126      0.36792  1.0000
  Si          0.67428      0.29188      0.69867  1.0000
  Si          0.30668      0.60448      0.53423  1.0000
  Si          0.38602      0.66789      0.86645  1.0000
  Si          0.33262      0.69935      0.19921  1.0000
  Si          0.38703      0.69404      0.30023  1.0000
  Si          0.32663      0.61685      0.96890  1.0000
  Si          0.31537      0.66940      0.63632  1.0000
  Si          0.62329      0.28943      0.79940  1.0000
  Si          0.68132      0.36427      0.46864  1.0000
  Si          0.71162      0.32392      0.13582  1.0000
  Ge          0.53019      0.42586      0.96653  1.0000
  Si          0.58967      0.10322      0.30278  1.0000
  Si          0.88788      0.45776      0.63746  1.0000
  Si          0.47570      0.56686      0.46795  1.0000
  Si          0.42715      0.88015      0.79949  1.0000
  Si          0.12188      0.52956      0.13395  1.0000
  Si          0.42402      0.51901      0.36595  1.0000
  Si          0.11373      0.57936      0.03234  1.0000
  Si          0.48308      0.88711      0.69831  1.0000
  Si          0.59627      0.45889      0.86750  1.0000
  Si          0.89017      0.39862      0.53473  1.0000
  Si          0.53908      0.11162      0.20084  1.0000
  Si          0.30871      0.38546      0.85313  1.0000
  Si          0.61051      0.90159      0.18569  1.0000
  Si          0.10243      0.68304      0.51911  1.0000
  Si          0.70514      0.59041      0.35239  1.0000
  Si          0.39980      0.08905      0.68458  1.0000
  Si          0.90434      0.30011      0.01938  1.0000
  Si          0.40338      0.28558      0.48304  1.0000
  Si          0.91348      0.60088      0.14896  1.0000
  Si          0.70515      0.08978      0.81365  1.0000
  Si          0.60916      0.69864      0.98842  1.0000
  Ge          0.10428      0.39998      0.64399  1.0000
  Si          0.31051      0.89519      0.31605  1.0000
  Si          0.25164      0.32837      0.95579  1.0000
  Si          0.66688      0.90193      0.28663  1.0000
  Si          0.09679      0.73812      0.62075  1.0000
  Si          0.75403      0.64543      0.45330  1.0000
  Si          0.34397      0.07917      0.78554  1.0000
  Si          0.92077      0.25235      0.12021  1.0000
  Si          0.34661      0.23909      0.38191  1.0000
  Si          0.91252      0.65659      0.04786  1.0000
  Si          0.75985      0.09001      0.71279  1.0000
  Si          0.67106      0.73970      0.88517  1.0000
  Si          0.09356      0.31729      0.54831  1.0000
  Si          0.26123      0.90957      0.21525  1.0000
  Si          0.96774      0.11935      0.96853  1.0000
  Si          0.88568      0.83947      0.30179  1.0000
  Si          0.15078      0.01732      0.63478  1.0000
  Si          0.03305      0.86236      0.46724  1.0000
  Si          0.12584      0.14021      0.80129  1.0000
  Si          0.85970      0.97255      0.13609  1.0000
  Si          0.12921      0.96030      0.36655  1.0000
  Si          0.85444      0.88036      0.03543  1.0000
  Si          0.04025      0.14983      0.69881  1.0000
  Si          0.88409      0.02176      0.86723  1.0000
  Si          0.15504      0.10406      0.53207  1.0000
  Si          0.98113      0.84659      0.20073  1.0000
  O2          0.93252      0.99986      0.00184  1.0000
  O2          0.00683      0.91956      0.33444  1.0000
  O2          0.07135      0.05602      0.66828  1.0000
  O2          0.07684      0.98110      0.50056  1.0000
  O2          0.00729      0.06186      0.83562  1.0000
  O2          0.93830      0.93025      0.16984  1.0000
  O2          0.34805      0.56895      0.33294  1.0000
  O2          0.44207      0.76666      0.66464  1.0000
  O2          0.23803      0.65483      0.99889  1.0000
  O2          0.66624      0.41529      0.83024  1.0000
  O2          0.58974      0.23961      0.16921  1.0000
  O2          0.76615      0.32523      0.50198  1.0000
  O3          0.57907      0.33822      0.00329  1.0000
  O2          0.75675      0.41672      0.66591  1.0000
  O2          0.66654      0.22666      0.33570  1.0000
  O2          0.42676      0.64296      0.50055  1.0000
  O2          0.24916      0.57904      0.16594  1.0000
  O2          0.35171      0.75313      0.83208  1.0000
  O2          0.11925      0.21100      0.97456  1.0000
  O2          0.79337      0.90148      0.30695  1.0000
  O2          0.09487      0.86310      0.64008  1.0000
  O2          0.87960      0.77210      0.47297  1.0000
  O2          0.21701      0.07575      0.80628  1.0000
  O2          0.92234      0.12624      0.14109  1.0000
  O2          0.22043      0.11463      0.36162  1.0000
  O2          0.91014      0.78324      0.02792  1.0000
  O2          0.88591      0.09353      0.69225  1.0000
  O2          0.79375      0.86698      0.86410  1.0000
  O2          0.09544      0.19786      0.52277  1.0000
  O2          0.13510      0.91120      0.19530  1.0000
  O2          0.94055      0.85354      0.25173  1.0000
  O2          0.13443      0.05219      0.58334  1.0000
  O2          0.93157      0.06580      0.91795  1.0000
  O2          0.07080      0.12860      0.75108  1.0000
  O2          0.87636      0.93262      0.08615  1.0000
  O2          0.07498      0.91812      0.41706  1.0000
  O2          0.89695      0.20036      0.98051  1.0000
  O2          0.80417      0.68753      0.31424  1.0000
  O2          0.30272      0.08940      0.64582  1.0000
  O2          0.10121      0.77729      0.47939  1.0000
  O2          0.21178      0.29112      0.81444  1.0000
  O2          0.70779      0.90293      0.14726  1.0000
  O2          0.21157      0.89094      0.35464  1.0000
  O2          0.70221      0.80940      0.02414  1.0000
  O3          0.11513      0.29596      0.68646  1.0000
  O2          0.80281      0.09077      0.85236  1.0000
  O2          0.30743      0.18435      0.52120  1.0000
  O2          0.91260      0.69690      0.18742  1.0000
  O2          0.33140      0.63936      0.24970  1.0000
  O2          0.36110      0.66016      0.58447  1.0000
  O2          0.33033      0.66631      0.91666  1.0000
  O2          0.67752      0.34745      0.74899  1.0000
  O2          0.65320      0.32505      0.08612  1.0000
  O2          0.68335      0.30809      0.41865  1.0000
  O3          0.36391      0.30968      0.97594  1.0000
  O2          0.67681      0.03331      0.30582  1.0000
  O2          0.96462      0.61506      0.63779  1.0000
  O2          0.63133      0.65427      0.47188  1.0000
  O2          0.33839      0.94757      0.80407  1.0000
  O2          0.05385      0.37331      0.13835  1.0000
  O2          0.33701      0.36296      0.36367  1.0000
  O2          0.04602      0.66860      0.02926  1.0000
  O2          0.63827      0.95585      0.69597  1.0000
  O2          0.68045      0.61731      0.86706  1.0000
  O2          0.96040      0.31253      0.53210  1.0000
  O2          0.38312      0.04317      0.19758  1.0000
  O2          0.77111      0.30073      0.01349  1.0000
  O2          0.70417      0.45544      0.34578  1.0000
  O2          0.53072      0.22476      0.67699  1.0000
  O2          0.23418      0.67889      0.51380  1.0000
  O2          0.31394      0.52319      0.84668  1.0000
  O2          0.47661      0.76904      0.17771  1.0000
  O2          0.31130      0.76068      0.32326  1.0000
  O2          0.47056      0.69425      0.98984  1.0000
  O3          0.25434      0.53306      0.66094  1.0000
  O2          0.69797      0.21967      0.82214  1.0000
  O2          0.53895      0.28837      0.49130  1.0000
  O2          0.78209      0.46647      0.15824  1.0000
  O2          0.78872      0.53214      0.02830  1.0000
  O2          0.47263      0.23944      0.36275  1.0000
  O2          0.74917      0.21083      0.69270  1.0000
  O2          0.21852      0.44991      0.53093  1.0000
  O2          0.54007      0.73120      0.86640  1.0000
  O2          0.26083      0.78437      0.19522  1.0000
  O2          0.54264      0.77382      0.30580  1.0000
  O2          0.26195      0.46246      0.97287  1.0000
  O2          0.22189      0.73366      0.63862  1.0000
  O2          0.46754      0.20725      0.80456  1.0000
  O2          0.75784      0.52051      0.47340  1.0000
  O2          0.79439      0.24968      0.14035  1.0000
  O2          0.24137      0.31762      0.90053  1.0000
  O2          0.68466      0.90285      0.23225  1.0000
  O2          0.09850      0.74928      0.56591  1.0000
  O2          0.77357      0.66416      0.39895  1.0000
  O2          0.32422      0.08064      0.73109  1.0000
  O2          0.91593      0.23141      0.06587  1.0000
  O2          0.33006      0.21752      0.43635  1.0000
  O2          0.91277      0.67426      0.10234  1.0000
  O2          0.77840      0.09262      0.76740  1.0000
  O2          0.68230      0.75508      0.93951  1.0000
  O3          0.09709      0.29089      0.60103  1.0000
  O2          0.24111      0.90413      0.26973  1.0000
  O3          0.60034      0.56678      0.00216  1.0000
  O2          0.44881      0.01967      0.32601  1.0000
  O3          0.96324      0.39755      0.66376  1.0000
  O2          0.41581      0.42482      0.49155  1.0000
  O2          0.56888      0.96009      0.82218  1.0000
  O2          0.04144      0.59001      0.15759  1.0000
  O2          0.56525      0.57535      0.34337  1.0000
  O2          0.03016      0.43877      0.00927  1.0000
  O2          0.41961      0.96706      0.67518  1.0000
  O2          0.45079      0.40581      0.84717  1.0000
  O2          0.98166      0.54120      0.51372  1.0000
  O2          0.59557      0.02745      0.17764  1.0000
  O2          0.59035      0.16030      0.25219  1.0000
  O2          0.84322      0.40380      0.58568  1.0000
  O3          0.60238      0.40324      0.91605  1.0000
  O2          0.42615      0.82786      0.74864  1.0000
  O2          0.17364      0.58142      0.08258  1.0000
  O2          0.42384      0.57067      0.41696  1.0000
  F           0.46086      0.89883      0.25217  1.0000
  F           0.10181      0.50551      0.59539  1.0000
  F           0.47720      0.51814      0.92851  1.0000
  F           0.54977      0.08737      0.74973  1.0000
  F           0.91806      0.45443      0.08532  1.0000
  F           0.55549      0.43960      0.41917  1.0000
