data_cif

_audit_creation_method             'generated by GULP'

_symmetry_space_group_name_H-M     'P 1'
_symmetry_Int_Tables_number        1
_symmetry_cell_setting             triclinic

_cell_length_a                       11.9508
_cell_length_b                       11.9297
_cell_length_c                       29.4228
_cell_angle_alpha                   89.8601
_cell_angle_beta                    90.1118
_cell_angle_gamma                  119.7016

loop_
_atom_site_label
_atom_site_fract_x
_atom_site_fract_y
_atom_site_fract_z
_atom_site_occupancy
  Si          0.69960      0.37570      0.03389  1.0000
  Si          0.63146      0.32387      0.36722  1.0000
  Si          0.68730      0.29585      0.69793  1.0000
  Si          0.30705      0.62008      0.53247  1.0000
  Si          0.39240      0.67693      0.86628  1.0000
  Si          0.33756      0.70939      0.19827  1.0000
  Si          0.39024      0.70419      0.29915  1.0000
  Si          0.32664      0.62544      0.96849  1.0000
  Si          0.30808      0.67458      0.63329  1.0000
  Si          0.63288      0.29653      0.79867  1.0000
  Si          0.68486      0.37943      0.46781  1.0000
  Si          0.71424      0.33114      0.13577  1.0000
  Ge          0.53646      0.43044      0.96730  1.0000
  Si          0.59348      0.11372      0.30241  1.0000
  Si          0.89836      0.47009      0.63412  1.0000
  Si          0.47892      0.58313      0.46688  1.0000
  Si          0.43223      0.88664      0.79940  1.0000
  Si          0.12531      0.54034      0.13285  1.0000
  Si          0.42726      0.53145      0.36498  1.0000
  Si          0.11114      0.58402      0.03150  1.0000
  Si          0.48231      0.88437      0.69782  1.0000
  Si          0.60390      0.46709      0.86723  1.0000
  Si          0.89578      0.41691      0.53245  1.0000
  Si          0.54333      0.12010      0.20071  1.0000
  Si          0.31679      0.39547      0.85246  1.0000
  Si          0.61601      0.91109      0.18488  1.0000
  Si          0.10490      0.69724      0.51827  1.0000
  Si          0.70845      0.60224      0.35189  1.0000
  Si          0.40990      0.09412      0.68366  1.0000
  Si          0.90577      0.30232      0.01945  1.0000
  Si          0.40677      0.30214      0.48202  1.0000
  Si          0.91489      0.60993      0.14815  1.0000
  Si          0.71112      0.09488      0.81364  1.0000
  Ge          0.61167      0.70602      0.98794  1.0000
  Si          0.10687      0.39725      0.64859  1.0000
  Si          0.31316      0.90551      0.31569  1.0000
  Si          0.25673      0.33795      0.95473  1.0000
  Si          0.67103      0.91247      0.28577  1.0000
  Si          0.09924      0.74805      0.61906  1.0000
  Si          0.75791      0.66097      0.45268  1.0000
  Si          0.35251      0.08712      0.78447  1.0000
  Si          0.92486      0.26107      0.12022  1.0000
  Si          0.35011      0.25223      0.38112  1.0000
  Si          0.90891      0.65957      0.04711  1.0000
  Si          0.76028      0.08616      0.71286  1.0000
  Si          0.67949      0.74894      0.88449  1.0000
  Si          0.09783      0.33954      0.54779  1.0000
  Si          0.26520      0.91854      0.21496  1.0000
  Si          0.97345      0.12379      0.96819  1.0000
  Si          0.88958      0.85037      0.30182  1.0000
  Si          0.16174      0.02829      0.63406  1.0000
  Si          0.03760      0.87865      0.46765  1.0000
  Si          0.13420      0.14865      0.80125  1.0000
  Si          0.86756      0.98352      0.13640  1.0000
  Si          0.13261      0.97251      0.36677  1.0000
  Si          0.85949      0.89023      0.03599  1.0000
  Si          0.04071      0.14999      0.69991  1.0000
  Si          0.89053      0.02857      0.86641  1.0000
  Si          0.15960      0.12137      0.53296  1.0000
  Si          0.98566      0.85699      0.20084  1.0000
  O2          0.94309      0.00663      0.00160  1.0000
  O2          0.00903      0.93036      0.33523  1.0000
  O2          0.08545      0.07062      0.66830  1.0000
  O2          0.07901      0.99890      0.50096  1.0000
  O2          0.01644      0.07146      0.83562  1.0000
  O2          0.94417      0.94262      0.17109  1.0000
  O2          0.35136      0.57994      0.33172  1.0000
  O2          0.43244      0.75856      0.66559  1.0000
  O2          0.23231      0.65971      0.99694  1.0000
  O2          0.67419      0.42222      0.83003  1.0000
  O2          0.59311      0.24772      0.16940  1.0000
  O2          0.76968      0.34027      0.50054  1.0000
  O3          0.57995      0.33648      0.00257  1.0000
  O2          0.77181      0.42037      0.66601  1.0000
  O2          0.67032      0.23812      0.33525  1.0000
  O2          0.42913      0.65934      0.49936  1.0000
  O2          0.25335      0.58984      0.16427  1.0000
  O2          0.35740      0.76116      0.83223  1.0000
  O2          0.12494      0.21927      0.97310  1.0000
  O2          0.79721      0.91261      0.30624  1.0000
  O2          0.09840      0.87400      0.63935  1.0000
  O2          0.88344      0.78812      0.47256  1.0000
  O2          0.22477      0.08398      0.80481  1.0000
  O2          0.92816      0.13724      0.14170  1.0000
  O2          0.22399      0.12657      0.36093  1.0000
  O2          0.90239      0.78270      0.02670  1.0000
  O2          0.88691      0.08604      0.69310  1.0000
  O2          0.79993      0.87454      0.86081  1.0000
  O2          0.09629      0.21269      0.52737  1.0000
  O2          0.13940      0.91981      0.19486  1.0000
  O2          0.94699      0.86399      0.25212  1.0000
  O2          0.14637      0.06957      0.58389  1.0000
  O2          0.93561      0.06879      0.91764  1.0000
  O2          0.07723      0.13788      0.75133  1.0000
  O2          0.89117      0.94518      0.08679  1.0000
  O2          0.08086      0.93435      0.41759  1.0000
  O2          0.89943      0.20155      0.98079  1.0000
  O2          0.80746      0.69847      0.31369  1.0000
  O2          0.31375      0.09623      0.64510  1.0000
  O2          0.10632      0.79521      0.47968  1.0000
  O2          0.22086      0.30006      0.81358  1.0000
  O2          0.71431      0.91257      0.14638  1.0000
  O2          0.21411      0.90204      0.35430  1.0000
  O3          0.70976      0.82766      0.02619  1.0000
  O2          0.10958      0.30140      0.68745  1.0000
  O2          0.81056      0.09909      0.85197  1.0000
  O2          0.31068      0.20343      0.52052  1.0000
  O2          0.91447      0.70734      0.18650  1.0000
  O2          0.33541      0.64893      0.24841  1.0000
  O2          0.36476      0.67543      0.58289  1.0000
  O2          0.33244      0.67232      0.91589  1.0000
  O2          0.68878      0.35232      0.74831  1.0000
  O2          0.65388      0.32854      0.08623  1.0000
  O2          0.68699      0.32258      0.41775  1.0000
  O3          0.36910      0.31811      0.97371  1.0000
  O2          0.68074      0.04414      0.30509  1.0000
  O2          0.96712      0.62631      0.63774  1.0000
  O2          0.63482      0.67093      0.47058  1.0000
  O2          0.34451      0.95539      0.80337  1.0000
  O2          0.05772      0.38428      0.13754  1.0000
  O2          0.34019      0.37507      0.36258  1.0000
  O2          0.04300      0.67253      0.02854  1.0000
  O2          0.63849      0.95277      0.69501  1.0000
  O2          0.68713      0.62512      0.86592  1.0000
  O2          0.96514      0.32945      0.52962  1.0000
  O2          0.38730      0.05178      0.19732  1.0000
  O2          0.77102      0.29984      0.01378  1.0000
  O2          0.70740      0.46722      0.34480  1.0000
  O2          0.54352      0.22787      0.67614  1.0000
  O2          0.23822      0.69589      0.51069  1.0000
  O2          0.32320      0.53283      0.84521  1.0000
  O2          0.48171      0.77817      0.17653  1.0000
  O2          0.31399      0.77103      0.32208  1.0000
  O3          0.46670      0.70720      0.99010  1.0000
  O2          0.24034      0.53145      0.65601  1.0000
  O2          0.70667      0.22676      0.82144  1.0000
  O2          0.54172      0.30384      0.49018  1.0000
  O2          0.78437      0.47486      0.15782  1.0000
  O2          0.78661      0.53239      0.02762  1.0000
  O2          0.47569      0.25093      0.36193  1.0000
  O2          0.75944      0.21157      0.69277  1.0000
  O2          0.22404      0.46409      0.52804  1.0000
  O2          0.54633      0.74020      0.86777  1.0000
  O2          0.26463      0.79307      0.19458  1.0000
  O2          0.54601      0.78469      0.30459  1.0000
  O2          0.26735      0.47125      0.97286  1.0000
  O2          0.22645      0.74961      0.63847  1.0000
  O2          0.47665      0.21533      0.80353  1.0000
  O2          0.75923      0.53569      0.47286  1.0000
  O2          0.79814      0.25842      0.14026  1.0000
  O2          0.24752      0.32955      0.89957  1.0000
  O2          0.68960      0.91274      0.23138  1.0000
  O2          0.10039      0.76760      0.56470  1.0000
  O2          0.77774      0.67735      0.39834  1.0000
  O2          0.33446      0.08849      0.73009  1.0000
  O2          0.91910      0.23658      0.06599  1.0000
  O2          0.33267      0.23234      0.43554  1.0000
  O2          0.91017      0.67961      0.10153  1.0000
  O2          0.78108      0.09067      0.76719  1.0000
  O3          0.69928      0.77318      0.93748  1.0000
  O2          0.10135      0.32193      0.60222  1.0000
  O2          0.24459      0.91394      0.26936  1.0000
  O1          0.60339      0.56672      0.00380  1.0000
  O2          0.45231      0.02971      0.32549  1.0000
  O2          0.98135      0.41140      0.65769  1.0000
  O2          0.42020      0.44184      0.49043  1.0000
  O2          0.57355      0.96695      0.82262  1.0000
  O2          0.04418      0.60122      0.15609  1.0000
  O2          0.56903      0.58801      0.34260  1.0000
  O2          0.02987      0.44174      0.00874  1.0000
  O2          0.42526      0.96919      0.67473  1.0000
  O2          0.45802      0.41313      0.84755  1.0000
  O2          0.97990      0.55816      0.50940  1.0000
  O2          0.60095      0.03670      0.17703  1.0000
  O2          0.59453      0.16992      0.25197  1.0000
  O2          0.84408      0.41755      0.58343  1.0000
  O3          0.60870      0.41281      0.91591  1.0000
  O2          0.42948      0.83109      0.74881  1.0000
  O2          0.17481      0.58978      0.08120  1.0000
  O2          0.42665      0.58452      0.41589  1.0000
  F           0.46498      0.90842      0.25075  1.0000
  F           0.10496      0.54706      0.58400  1.0000
  F           0.48991      0.53527      0.93004  1.0000
  F           0.55811      0.09120      0.74940  1.0000
  F           0.91869      0.46022      0.08429  1.0000
  F           0.55794      0.45294      0.41749  1.0000
