data_cif

_audit_creation_method             'generated by GULP'

_symmetry_space_group_name_H-M     'P 1'
_symmetry_Int_Tables_number        1
_symmetry_cell_setting             triclinic

_cell_length_a                       11.9635
_cell_length_b                       11.9287
_cell_length_c                       29.4596
_cell_angle_alpha                   89.6405
_cell_angle_beta                    90.0410
_cell_angle_gamma                  119.7449

loop_
_atom_site_label
_atom_site_fract_x
_atom_site_fract_y
_atom_site_fract_z
_atom_site_occupancy
  Si          0.69960      0.37570      0.03389  1.0000
  Si          0.61926      0.31842      0.36696  1.0000
  Si          0.67086      0.28321      0.69683  1.0000
  Si          0.29507      0.61194      0.53334  1.0000
  Si          0.37844      0.66704      0.86722  1.0000
  Si          0.32539      0.70152      0.20040  1.0000
  Si          0.37924      0.69973      0.30112  1.0000
  Si          0.32049      0.61605      0.96992  1.0000
  Si          0.29184      0.66338      0.63403  1.0000
  Si          0.61776      0.28634      0.79744  1.0000
  Si          0.67319      0.37101      0.46742  1.0000
  Si          0.70545      0.32398      0.13547  1.0000
  Ge          0.52826      0.41747      0.96562  1.0000
  Si          0.58184      0.10932      0.30206  1.0000
  Si          0.88262      0.45812      0.63303  1.0000
  Si          0.46819      0.57564      0.46836  1.0000
  Si          0.41595      0.87638      0.80035  1.0000
  Si          0.11575      0.53129      0.13527  1.0000
  Si          0.41631      0.52641      0.36665  1.0000
  Si          0.11220      0.58318      0.03402  1.0000
  Si          0.46483      0.87192      0.69887  1.0000
  Si          0.58886      0.45760      0.86497  1.0000
  Si          0.88405      0.40780      0.53151  1.0000
  Si          0.53131      0.11298      0.20042  1.0000
  Si          0.30148      0.38425      0.85130  1.0000
  Si          0.60326      0.90323      0.18614  1.0000
  Si          0.09339      0.68893      0.51804  1.0000
  Si          0.69712      0.59774      0.35250  1.0000
  Si          0.39293      0.08185      0.68393  1.0000
  Si          0.90575      0.30239      0.01993  1.0000
  Si          0.39578      0.29398      0.48261  1.0000
  Si          0.90630      0.60169      0.14990  1.0000
  Si          0.69510      0.08458      0.81343  1.0000
  Si          0.60209      0.69242      0.98754  1.0000
  Si          0.09040      0.38517      0.64832  1.0000
  Si          0.30197      0.90108      0.31617  1.0000
  Ge          0.24946      0.32695      0.95456  1.0000
  Si          0.65975      0.90800      0.28680  1.0000
  Si          0.08360      0.73669      0.61872  1.0000
  Si          0.74663      0.65322      0.45325  1.0000
  Si          0.33674      0.07714      0.78472  1.0000
  Si          0.91575      0.25305      0.12050  1.0000
  Si          0.33835      0.24648      0.38188  1.0000
  Si          0.90894      0.65762      0.04911  1.0000
  Si          0.74326      0.07344      0.71283  1.0000
  Si          0.66359      0.73829      0.88437  1.0000
  Si          0.08564      0.33051      0.54762  1.0000
  Si          0.25315      0.91142      0.21548  1.0000
  Si          0.96238      0.11516      0.96849  1.0000
  Si          0.87828      0.84631      0.30188  1.0000
  Si          0.14543      0.01645      0.63397  1.0000
  Si          0.02611      0.87072      0.46770  1.0000
  Si          0.11895      0.13960      0.80067  1.0000
  Si          0.85226      0.97259      0.13614  1.0000
  Si          0.12061      0.96722      0.36690  1.0000
  Si          0.84485      0.87601      0.03574  1.0000
  Si          0.02335      0.13683      0.69966  1.0000
  Si          0.87655      0.02146      0.86685  1.0000
  Si          0.14777      0.11256      0.53299  1.0000
  Si          0.97327      0.84862      0.20099  1.0000
  O2          0.91342      0.99095      0.00022  1.0000
  O2          0.99902      0.92613      0.33457  1.0000
  O2          0.06798      0.05791      0.66789  1.0000
  O2          0.06806      0.99101      0.50077  1.0000
  O2          0.00061      0.06267      0.83521  1.0000
  O2          0.93125      0.93000      0.16899  1.0000
  O2          0.34020      0.57593      0.33406  1.0000
  O2          0.41442      0.74582      0.66700  1.0000
  O2          0.23722      0.66033      0.00084  1.0000
  O2          0.65977      0.41394      0.82773  1.0000
  O2          0.58209      0.23961      0.16828  1.0000
  O2          0.75886      0.33138      0.49944  1.0000
  O3          0.58260      0.33473      0.00144  1.0000
  O2          0.75486      0.40711      0.66442  1.0000
  O2          0.65835      0.23434      0.33441  1.0000
  O2          0.41880      0.65160      0.50099  1.0000
  O2          0.24161      0.57974      0.16750  1.0000
  O2          0.34182      0.75158      0.83388  1.0000
  O3          0.11239      0.19381      0.97534  1.0000
  O2          0.78642      0.90888      0.30703  1.0000
  O2          0.08163      0.86193      0.63896  1.0000
  O2          0.87228      0.77946      0.47328  1.0000
  O2          0.20966      0.07501      0.80515  1.0000
  O2          0.91596      0.12672      0.14131  1.0000
  O2          0.21173      0.12166      0.36176  1.0000
  O2          0.90657      0.78373      0.02914  1.0000
  O2          0.86948      0.07246      0.69318  1.0000
  O2          0.78668      0.86604      0.86373  1.0000
  O2          0.08536      0.20457      0.52716  1.0000
  O2          0.12728      0.91238      0.19545  1.0000
  O2          0.93299      0.85979      0.25167  1.0000
  O2          0.13229      0.05945      0.58383  1.0000
  O2          0.92372      0.06664      0.91722  1.0000
  O2          0.06039      0.12408      0.75086  1.0000
  O2          0.86696      0.93325      0.08573  1.0000
  O2          0.06661      0.92614      0.41740  1.0000
  O2          0.90151      0.20584      0.98041  1.0000
  O2          0.79609      0.69448      0.31423  1.0000
  O2          0.29685      0.08378      0.64549  1.0000
  O2          0.09578      0.78793      0.47951  1.0000
  O2          0.20647      0.29197      0.81122  1.0000
  O2          0.70054      0.90297      0.14778  1.0000
  O2          0.20308      0.89794      0.35468  1.0000
  O2          0.69241      0.79804      0.02499  1.0000
  O2          0.09171      0.28836      0.68715  1.0000
  O2          0.79396      0.08835      0.85175  1.0000
  O2          0.29929      0.19434      0.52103  1.0000
  O2          0.90423      0.69771      0.18842  1.0000
  O2          0.32378      0.64300      0.25082  1.0000
  O2          0.35062      0.66607      0.58390  1.0000
  O2          0.32267      0.66314      0.91757  1.0000
  O2          0.67303      0.34080      0.74690  1.0000
  O2          0.64890      0.32497      0.08565  1.0000
  O2          0.67468      0.31528      0.41725  1.0000
  O1          0.36668      0.30194      0.97559  1.0000
  O2          0.66935      0.04016      0.30531  1.0000
  O2          0.95095      0.61428      0.63695  1.0000
  O2          0.62406      0.66301      0.47173  1.0000
  O2          0.32845      0.94531      0.80404  1.0000
  O2          0.04770      0.37477      0.13909  1.0000
  O2          0.32887      0.37013      0.36390  1.0000
  O2          0.04344      0.67115      0.03083  1.0000
  O2          0.62086      0.93979      0.69573  1.0000
  O2          0.67127      0.61582      0.86502  1.0000
  O2          0.95367      0.32065      0.52898  1.0000
  O2          0.37529      0.04448      0.19729  1.0000
  O2          0.77235      0.30165      0.01383  1.0000
  O2          0.69539      0.46263      0.34498  1.0000
  O2          0.52683      0.21494      0.67559  1.0000
  O2          0.22723      0.68825      0.51114  1.0000
  O2          0.30774      0.52279      0.84670  1.0000
  O2          0.46926      0.76998      0.17850  1.0000
  O2          0.30318      0.76707      0.32359  1.0000
  O2          0.46574      0.69098      0.98964  1.0000
  O2          0.22324      0.51939      0.65634  1.0000
  O2          0.69170      0.21723      0.82063  1.0000
  O2          0.53045      0.29498      0.49024  1.0000
  O2          0.77466      0.46649      0.15831  1.0000
  O2          0.78576      0.53281      0.02898  1.0000
  O2          0.46355      0.24564      0.36212  1.0000
  O2          0.74249      0.19845      0.69211  1.0000
  O2          0.21245      0.45604      0.52849  1.0000
  O2          0.53285      0.73147      0.86679  1.0000
  O2          0.25272      0.78539      0.19589  1.0000
  O2          0.53499      0.78069      0.30628  1.0000
  O3          0.24944      0.46305      0.97525  1.0000
  O2          0.21001      0.73815      0.63874  1.0000
  O2          0.46176      0.20520      0.80322  1.0000
  O2          0.74788      0.52719      0.47283  1.0000
  O2          0.78811      0.24993      0.13979  1.0000
  O3          0.22710      0.30897      0.89593  1.0000
  O2          0.67765      0.90668      0.23251  1.0000
  O2          0.08694      0.75779      0.56443  1.0000
  O2          0.76634      0.67141      0.39896  1.0000
  O2          0.31861      0.07780      0.73041  1.0000
  O2          0.91546      0.23327      0.06623  1.0000
  O2          0.32136      0.22519      0.43623  1.0000
  O2          0.90700      0.67523      0.10346  1.0000
  O2          0.76454      0.07917      0.76708  1.0000
  O2          0.67456      0.74871      0.93867  1.0000
  O2          0.08690      0.31128      0.60200  1.0000
  O2          0.23289      0.90796      0.26983  1.0000
  O3          0.59363      0.55980      0.99947  1.0000
  O2          0.44078      0.02605      0.32540  1.0000
  O2          0.96444      0.39869      0.65694  1.0000
  O2          0.40960      0.43359      0.49157  1.0000
  O2          0.55747      0.95715      0.82309  1.0000
  O2          0.03382      0.59080      0.15868  1.0000
  O2          0.55776      0.58380      0.34381  1.0000
  O2          0.03112      0.44219      0.01058  1.0000
  O2          0.40753      0.95632      0.67564  1.0000
  O2          0.44372      0.40401      0.84510  1.0000
  O2          0.96913      0.54973      0.50874  1.0000
  O2          0.58857      0.02875      0.17743  1.0000
  O2          0.58277      0.16436      0.25139  1.0000
  O2          0.83044      0.40708      0.58224  1.0000
  O3          0.59711      0.40331      0.91339  1.0000
  O2          0.41251      0.81952      0.75005  1.0000
  O2          0.16984      0.58464      0.08430  1.0000
  O2          0.41593      0.57823      0.41761  1.0000
  F           0.45332      0.90279      0.25172  1.0000
  F           0.09100      0.53699      0.58388  1.0000
  F           0.45762      0.50496      0.92802  1.0000
  F           0.54199      0.07988      0.74953  1.0000
  F           0.91356      0.45602      0.08566  1.0000
  F           0.54640      0.44613      0.41820  1.0000
