data_cif

_audit_creation_method             'generated by GULP'

_symmetry_space_group_name_H-M     'P 1'
_symmetry_Int_Tables_number        1
_symmetry_cell_setting             triclinic

_cell_length_a                       11.9818
_cell_length_b                       11.8941
_cell_length_c                       29.5005
_cell_angle_alpha                   90.0539
_cell_angle_beta                    90.0431
_cell_angle_gamma                  119.7257

loop_
_atom_site_label
_atom_site_fract_x
_atom_site_fract_y
_atom_site_fract_z
_atom_site_occupancy
  Si          0.69960      0.37570      0.03389  1.0000
  Si          0.62307      0.32124      0.36720  1.0000
  Si          0.67963      0.27931      0.69905  1.0000
  Si          0.30614      0.61328      0.53088  1.0000
  Si          0.38629      0.66274      0.86780  1.0000
  Si          0.33195      0.70530      0.19895  1.0000
  Si          0.38566      0.70330      0.29940  1.0000
  Si          0.32706      0.61508      0.96984  1.0000
  Si          0.30203      0.65956      0.63392  1.0000
  Si          0.62626      0.28165      0.79947  1.0000
  Si          0.67285      0.37739      0.46729  1.0000
  Si          0.71033      0.32732      0.13546  1.0000
  Ge          0.52999      0.42199      0.96667  1.0000
  Si          0.58769      0.11207      0.30190  1.0000
  Si          0.88848      0.45334      0.63483  1.0000
  Si          0.47960      0.58788      0.46592  1.0000
  Si          0.42517      0.87076      0.80056  1.0000
  Si          0.12117      0.53394      0.13400  1.0000
  Si          0.42412      0.53211      0.36482  1.0000
  Si          0.11394      0.58045      0.03282  1.0000
  Si          0.47479      0.86990      0.69931  1.0000
  Si          0.59614      0.45144      0.86783  1.0000
  Si          0.87953      0.39973      0.53107  1.0000
  Si          0.53812      0.11720      0.20043  1.0000
  Si          0.30985      0.37924      0.85429  1.0000
  Si          0.60953      0.90655      0.18552  1.0000
  Si          0.09521      0.68477      0.51711  1.0000
  Si          0.70369      0.60089      0.35154  1.0000
  Si          0.40151      0.07909      0.68519  1.0000
  Si          0.90427      0.30040      0.01977  1.0000
  Si          0.39701      0.30342      0.48298  1.0000
  Si          0.91296      0.60612      0.14905  1.0000
  Si          0.70410      0.07938      0.81454  1.0000
  Si          0.60915      0.69664      0.98909  1.0000
  Si          0.09945      0.37814      0.65185  1.0000
  Si          0.30764      0.90447      0.31533  1.0000
  Si          0.25183      0.32477      0.95641  1.0000
  Si          0.66652      0.91083      0.28603  1.0000
  Si          0.08956      0.73504      0.61932  1.0000
  Si          0.75582      0.66160      0.45184  1.0000
  Si          0.34543      0.07201      0.78594  1.0000
  Si          0.91939      0.25513      0.12006  1.0000
  Si          0.34300      0.25158      0.38193  1.0000
  Si          0.91300      0.65758      0.04821  1.0000
  Si          0.75310      0.06987      0.71396  1.0000
  Si          0.67023      0.73348      0.88612  1.0000
  Ge          0.09060      0.34664      0.55180  1.0000
  Si          0.26019      0.91586      0.21475  1.0000
  Si          0.96716      0.11708      0.96933  1.0000
  Si          0.88519      0.84911      0.30198  1.0000
  Si          0.15651      0.01909      0.63447  1.0000
  Si          0.03577      0.87563      0.46832  1.0000
  Si          0.12626      0.13140      0.80345  1.0000
  Si          0.85868      0.97551      0.13660  1.0000
  Si          0.12722      0.97047      0.36730  1.0000
  Si          0.85433      0.88034      0.03622  1.0000
  Si          0.03305      0.13400      0.70278  1.0000
  Si          0.88368      0.01512      0.86841  1.0000
  Si          0.15072      0.12029      0.53465  1.0000
  Si          0.98117      0.85384      0.20126  1.0000
  O2          0.93195      0.99927      0.00277  1.0000
  O2          0.00275      0.92762      0.33627  1.0000
  O2          0.08102      0.05967      0.66981  1.0000
  O2          0.08140      0.99353      0.50259  1.0000
  O2          0.00861      0.05392      0.83777  1.0000
  O2          0.93709      0.93584      0.17069  1.0000
  O2          0.34707      0.57930      0.33189  1.0000
  O2          0.42417      0.74449      0.66647  1.0000
  O2          0.23896      0.65459      0.99963  1.0000
  O2          0.66748      0.40858      0.83033  1.0000
  O2          0.58867      0.24430      0.16871  1.0000
  O2          0.75058      0.33327      0.50104  1.0000
  O3          0.57961      0.33623      0.00296  1.0000
  O2          0.76334      0.40391      0.66698  1.0000
  O2          0.66271      0.23633      0.33500  1.0000
  O2          0.43205      0.66684      0.49849  1.0000
  O2          0.24790      0.58328      0.16572  1.0000
  O2          0.35044      0.74559      0.83348  1.0000
  O2          0.11895      0.20798      0.97480  1.0000
  O2          0.79301      0.91175      0.30622  1.0000
  O2          0.09261      0.86282      0.63920  1.0000
  O2          0.88150      0.78725      0.47232  1.0000
  O2          0.21845      0.06844      0.80691  1.0000
  O2          0.92111      0.13005      0.14109  1.0000
  O2          0.21686      0.12526      0.36185  1.0000
  O2          0.91043      0.78354      0.02819  1.0000
  O2          0.87933      0.06830      0.69493  1.0000
  O2          0.79304      0.85996      0.86482  1.0000
  O3          0.08188      0.20128      0.53012  1.0000
  O2          0.13460      0.91742      0.19484  1.0000
  O2          0.94412      0.86425      0.25246  1.0000
  O2          0.14495      0.06226      0.58478  1.0000
  O2          0.92934      0.06079      0.91898  1.0000
  O2          0.06742      0.11588      0.75375  1.0000
  O2          0.87617      0.93331      0.08690  1.0000
  O2          0.08000      0.93108      0.41837  1.0000
  O2          0.89736      0.19943      0.98082  1.0000
  O2          0.80220      0.69649      0.31314  1.0000
  O2          0.30719      0.08296      0.64671  1.0000
  O2          0.09794      0.78492      0.47970  1.0000
  O2          0.21212      0.28359      0.81561  1.0000
  O2          0.70677      0.90594      0.14727  1.0000
  O2          0.20886      0.90103      0.35374  1.0000
  O2          0.70225      0.80868      0.02474  1.0000
  O2          0.09847      0.28786      0.69390  1.0000
  O2          0.80344      0.08385      0.85262  1.0000
  O2          0.30261      0.20931      0.52206  1.0000
  O2          0.91157      0.70298      0.18761  1.0000
  O2          0.33022      0.64618      0.24902  1.0000
  O2          0.35439      0.66003      0.58324  1.0000
  O2          0.33096      0.66312      0.91777  1.0000
  O2          0.68142      0.33682      0.74916  1.0000
  O2          0.65251      0.32647      0.08580  1.0000
  O2          0.67831      0.32032      0.41759  1.0000
  O3          0.36359      0.30623      0.97628  1.0000
  O2          0.67558      0.04327      0.30479  1.0000
  O2          0.96020      0.61042      0.63763  1.0000
  O2          0.63498      0.67573      0.46913  1.0000
  O2          0.33749      0.93947      0.80409  1.0000
  O2          0.05244      0.37724      0.13795  1.0000
  O2          0.33616      0.37538      0.36255  1.0000
  O2          0.04644      0.66974      0.02938  1.0000
  O2          0.63030      0.93726      0.69571  1.0000
  O2          0.67958      0.61052      0.86765  1.0000
  O3          0.94140      0.30930      0.52656  1.0000
  O2          0.38241      0.04897      0.19699  1.0000
  O2          0.77122      0.30026      0.01338  1.0000
  O2          0.69955      0.46413      0.34423  1.0000
  O2          0.53639      0.21128      0.67731  1.0000
  O2          0.22906      0.68461      0.51217  1.0000
  O2          0.31490      0.51681      0.84796  1.0000
  O2          0.47548      0.77344      0.17719  1.0000
  O2          0.30902      0.77007      0.32203  1.0000
  O2          0.47116      0.69298      0.99041  1.0000
  O2          0.23247      0.51641      0.65634  1.0000
  O2          0.70034      0.21213      0.82196  1.0000
  O2          0.53062      0.30223      0.48951  1.0000
  O2          0.78119      0.47144      0.15760  1.0000
  O2          0.78858      0.53261      0.02847  1.0000
  O2          0.46740      0.24780      0.36305  1.0000
  O2          0.75319      0.19616      0.69390  1.0000
  O3          0.23296      0.46022      0.52385  1.0000
  O2          0.54018      0.72605      0.86747  1.0000
  O2          0.25929      0.78936      0.19464  1.0000
  O2          0.54115      0.78388      0.30496  1.0000
  O2          0.26270      0.46020      0.97328  1.0000
  O2          0.21220      0.72557      0.63623  1.0000
  O2          0.47061      0.19962      0.80481  1.0000
  O2          0.75297      0.53445      0.47253  1.0000
  O2          0.79329      0.25367      0.13979  1.0000
  O2          0.24225      0.31169      0.90127  1.0000
  O2          0.68383      0.90943      0.23178  1.0000
  O2          0.08713      0.74515      0.56523  1.0000
  O2          0.77595      0.67669      0.39760  1.0000
  O2          0.32782      0.07508      0.73175  1.0000
  O2          0.91476      0.23194      0.06587  1.0000
  O2          0.32369      0.23516      0.43616  1.0000
  O2          0.91337      0.67797      0.10245  1.0000
  O2          0.77290      0.07378      0.76817  1.0000
  O2          0.68202      0.75117      0.94020  1.0000
  O3          0.09590      0.29706      0.60868  1.0000
  O2          0.23950      0.91198      0.26897  1.0000
  O3          0.59944      0.56436      0.00236  1.0000
  O2          0.44669      0.02886      0.32479  1.0000
  O2          0.97603      0.39929      0.65725  1.0000
  O2          0.42057      0.44783      0.49024  1.0000
  O2          0.56629      0.95198      0.82358  1.0000
  O2          0.04004      0.59455      0.15740  1.0000
  O2          0.56546      0.58885      0.34238  1.0000
  O2          0.03101      0.43862      0.00951  1.0000
  O2          0.41388      0.95161      0.67655  1.0000
  O2          0.45082      0.39782      0.84749  1.0000
  O2          0.97337      0.54332      0.50958  1.0000
  O2          0.59556      0.03291      0.17719  1.0000
  O2          0.58919      0.16816      0.25152  1.0000
  O2          0.83852      0.40489      0.58386  1.0000
  O3          0.60136      0.39665      0.91601  1.0000
  O2          0.42279      0.81469      0.75003  1.0000
  O2          0.17338      0.58477      0.08286  1.0000
  O2          0.42512      0.58751      0.41538  1.0000
  F           0.45957      0.90589      0.25056  1.0000
  F           0.09376      0.49523      0.57882  1.0000
  F           0.47759      0.51310      0.92872  1.0000
  F           0.55112      0.07482      0.74975  1.0000
  F           0.91787      0.45689      0.08432  1.0000
  F           0.55527      0.45512      0.41680  1.0000
