data_cif

_audit_creation_method             'generated by GULP'

_symmetry_space_group_name_H-M     'P 1'
_symmetry_Int_Tables_number        1
_symmetry_cell_setting             triclinic

_cell_length_a                       11.9852
_cell_length_b                       11.8954
_cell_length_c                       29.5000
_cell_angle_alpha                   89.1742
_cell_angle_beta                    90.2820
_cell_angle_gamma                  119.7466

loop_
_atom_site_label
_atom_site_fract_x
_atom_site_fract_y
_atom_site_fract_z
_atom_site_occupancy
  Si          0.69960      0.37570      0.03389  1.0000
  Si          0.62797      0.32267      0.37050  1.0000
  Si          0.68109      0.28007      0.69968  1.0000
  Si          0.30573      0.61283      0.53716  1.0000
  Si          0.39224      0.66325      0.87065  1.0000
  Si          0.33263      0.70654      0.20477  1.0000
  Si          0.38734      0.70482      0.30531  1.0000
  Si          0.33746      0.60883      0.97258  1.0000
  Si          0.30179      0.66190      0.63773  1.0000
  Si          0.62855      0.28232      0.80001  1.0000
  Si          0.68319      0.37205      0.47085  1.0000
  Si          0.70994      0.33097      0.13780  1.0000
  Ge          0.53004      0.41213      0.96632  1.0000
  Si          0.58937      0.11513      0.30499  1.0000
  Si          0.89257      0.45596      0.63603  1.0000
  Si          0.47940      0.57834      0.47257  1.0000
  Si          0.42750      0.87293      0.80365  1.0000
  Si          0.12440      0.53675      0.13935  1.0000
  Si          0.42644      0.53181      0.37104  1.0000
  Si          0.12946      0.58890      0.03540  1.0000
  Si          0.47554      0.86901      0.70242  1.0000
  Si          0.59932      0.45061      0.86786  1.0000
  Si          0.89428      0.40751      0.53466  1.0000
  Si          0.53855      0.11723      0.20342  1.0000
  Si          0.31320      0.38044      0.85544  1.0000
  Si          0.61057      0.90709      0.18982  1.0000
  Si          0.10401      0.68930      0.52166  1.0000
  Si          0.70629      0.60322      0.35652  1.0000
  Si          0.40342      0.07926      0.68733  1.0000
  Si          0.91275      0.30476      0.02165  1.0000
  Si          0.40638      0.29512      0.48668  1.0000
  Si          0.91302      0.61140      0.15560  1.0000
  Si          0.70662      0.08057      0.81651  1.0000
  Si          0.61811      0.68636      0.99164  1.0000
  Si          0.09996      0.38258      0.65182  1.0000
  Si          0.30958      0.90645      0.31965  1.0000
  Si          0.25323      0.31786      0.95742  1.0000
  Si          0.66762      0.91333      0.29046  1.0000
  Si          0.09379      0.73549      0.62210  1.0000
  Si          0.75709      0.65585      0.45714  1.0000
  Si          0.34715      0.07360      0.78794  1.0000
  Si          0.92212      0.25540      0.12375  1.0000
  Si          0.34828      0.25087      0.38607  1.0000
  Ge          0.91877      0.64154      0.05536  1.0000
  Si          0.75375      0.06991      0.71602  1.0000
  Si          0.67616      0.73164      0.88836  1.0000
  Si          0.09603      0.33077      0.55120  1.0000
  Si          0.26046      0.91662      0.21896  1.0000
  Si          0.96801      0.11395      0.97224  1.0000
  Si          0.88736      0.85411      0.30660  1.0000
  Si          0.15590      0.01546      0.63811  1.0000
  Si          0.03673      0.87254      0.47183  1.0000
  Si          0.12883      0.13500      0.80520  1.0000
  Si          0.85707      0.97215      0.13939  1.0000
  Si          0.12955      0.97229      0.37118  1.0000
  Si          0.86118      0.87277      0.04017  1.0000
  Si          0.03356      0.13385      0.70401  1.0000
  Si          0.88649      0.01622      0.87097  1.0000
  Si          0.15868      0.11329      0.53719  1.0000
  Si          0.98140      0.85460      0.20648  1.0000
  O2          0.92711      0.99644      0.00634  1.0000
  O2          0.00616      0.93258      0.34004  1.0000
  O2          0.07982      0.05550      0.67292  1.0000
  O2          0.07875      0.99115      0.50546  1.0000
  O2          0.01259      0.05798      0.84046  1.0000
  O2          0.93521      0.93176      0.17376  1.0000
  O2          0.34932      0.58131      0.33867  1.0000
  O2          0.42416      0.74286      0.67069  1.0000
  O2          0.25799      0.65293      0.00437  1.0000
  O2          0.67031      0.40985      0.82996  1.0000
  O2          0.58825      0.24346      0.17056  1.0000
  O2          0.76938      0.33168      0.50248  1.0000
  O3          0.57830      0.32297      0.00268  1.0000
  O2          0.76478      0.40451      0.66710  1.0000
  O2          0.66620      0.23977      0.33723  1.0000
  O2          0.43003      0.65359      0.50521  1.0000
  O2          0.24843      0.58404      0.17210  1.0000
  O2          0.35470      0.74799      0.83742  1.0000
  O2          0.12062      0.20123      0.97641  1.0000
  O2          0.79434      0.91549      0.31116  1.0000
  O2          0.09141      0.86026      0.64243  1.0000
  O2          0.88301      0.78140      0.47714  1.0000
  O2          0.22027      0.07102      0.80841  1.0000
  O2          0.91856      0.12761      0.14457  1.0000
  O2          0.22136      0.12697      0.36586  1.0000
  O3          0.92529      0.78805      0.03426  1.0000
  O2          0.88009      0.06893      0.69684  1.0000
  O2          0.79837      0.86083      0.86743  1.0000
  O2          0.09664      0.20557      0.53057  1.0000
  O2          0.13506      0.91903      0.19929  1.0000
  O2          0.94604      0.87259      0.25696  1.0000
  O2          0.14243      0.06128      0.58831  1.0000
  O2          0.92776      0.06040      0.92183  1.0000
  O2          0.06945      0.12220      0.75561  1.0000
  O2          0.87255      0.93345      0.08967  1.0000
  O2          0.07817      0.93070      0.42184  1.0000
  O2          0.90637      0.20429      0.98372  1.0000
  O2          0.80491      0.70122      0.31827  1.0000
  O2          0.30725      0.08176      0.64899  1.0000
  O2          0.10606      0.78887      0.48303  1.0000
  O2          0.21546      0.28707      0.81668  1.0000
  O2          0.70580      0.90458      0.15148  1.0000
  O2          0.21063      0.90242      0.35797  1.0000
  O2          0.70801      0.79241      0.02837  1.0000
  O2          0.10153      0.28559      0.69086  1.0000
  O2          0.80580      0.08435      0.85462  1.0000
  O2          0.31008      0.19460      0.52509  1.0000
  O2          0.91455      0.70116      0.19739  1.0000
  O2          0.33168      0.64754      0.25516  1.0000
  O2          0.36057      0.66596      0.58766  1.0000
  O2          0.33584      0.65781      0.92079  1.0000
  O2          0.68382      0.33762      0.74953  1.0000
  O2          0.65797      0.33444      0.08759  1.0000
  O2          0.68382      0.31756      0.42054  1.0000
  O3          0.36402      0.29506      0.97572  1.0000
  O2          0.67697      0.04611      0.30801  1.0000
  O2          0.96099      0.61241      0.63995  1.0000
  O2          0.63505      0.66553      0.47582  1.0000
  O2          0.33959      0.94136      0.80720  1.0000
  O2          0.05156      0.37952      0.14196  1.0000
  O2          0.33894      0.37529      0.36825  1.0000
  O3          0.06989      0.68086      0.03006  1.0000
  O2          0.63125      0.93628      0.69902  1.0000
  O2          0.68282      0.60971      0.86787  1.0000
  O2          0.96427      0.32060      0.53223  1.0000
  O2          0.38299      0.04865      0.19994  1.0000
  O2          0.78023      0.30538      0.01718  1.0000
  O2          0.70406      0.46781      0.34864  1.0000
  O2          0.53715      0.21249      0.67859  1.0000
  O2          0.23787      0.68933      0.51469  1.0000
  O2          0.32151      0.51968      0.84945  1.0000
  O2          0.47538      0.77485      0.18236  1.0000
  O2          0.31112      0.77215      0.32720  1.0000
  O2          0.48153      0.68557      0.99203  1.0000
  O2          0.23260      0.51687      0.65976  1.0000
  O2          0.70295      0.21337      0.82328  1.0000
  O2          0.54083      0.29554      0.49376  1.0000
  O2          0.78054      0.47280      0.16074  1.0000
  O3          0.78091      0.53038      0.02627  1.0000
  O2          0.47248      0.24958      0.36596  1.0000
  O2          0.75279      0.19526      0.69496  1.0000
  O2          0.22319      0.45667      0.53221  1.0000
  O2          0.54626      0.72753      0.87101  1.0000
  O2          0.25831      0.78904      0.19986  1.0000
  O2          0.54272      0.78652      0.31032  1.0000
  O2          0.26800      0.45307      0.97603  1.0000
  O2          0.21971      0.73636      0.64226  1.0000
  O2          0.47280      0.20140      0.80590  1.0000
  O2          0.75777      0.52847      0.47631  1.0000
  O2          0.79930      0.26434      0.14008  1.0000
  O2          0.24288      0.31060      0.90224  1.0000
  O2          0.68430      0.90974      0.23629  1.0000
  O2          0.09774      0.75807      0.56785  1.0000
  O2          0.77607      0.67575      0.40289  1.0000
  O2          0.32904      0.07470      0.73367  1.0000
  O2          0.92461      0.24430      0.06967  1.0000
  O2          0.33174      0.22773      0.44033  1.0000
  O3          0.91480      0.69188      0.11209  1.0000
  O2          0.77517      0.07529      0.77016  1.0000
  O2          0.69116      0.74187      0.94247  1.0000
  O2          0.09656      0.30963      0.60550  1.0000
  O2          0.24120      0.91393      0.27322  1.0000
  O3          0.59930      0.54914      0.00349  1.0000
  O2          0.44869      0.03128      0.32837  1.0000
  O2          0.97418      0.39604      0.66006  1.0000
  O2          0.42125      0.43536      0.49564  1.0000
  O2          0.56892      0.95338      0.82620  1.0000
  O2          0.03743      0.59155      0.16102  1.0000
  O2          0.56738      0.59018      0.34796  1.0000
  O2          0.03733      0.44559      0.01388  1.0000
  O2          0.41779      0.95343      0.67904  1.0000
  O2          0.45320      0.39702      0.84841  1.0000
  O2          0.97958      0.55036      0.51204  1.0000
  O2          0.59857      0.03497      0.18097  1.0000
  O2          0.58956      0.17012      0.25416  1.0000
  O2          0.84063      0.40565      0.58528  1.0000
  O3          0.60418      0.39219      0.91578  1.0000
  O2          0.42359      0.81593      0.75355  1.0000
  O2          0.17425      0.58504      0.08796  1.0000
  O2          0.42692      0.58268      0.42198  1.0000
  F           0.46037      0.90779      0.25449  1.0000
  F           0.10089      0.53619      0.58694  1.0000
  F           0.47948      0.50708      0.92932  1.0000
  F           0.55276      0.07645      0.75225  1.0000
  F           0.91987      0.49588      0.08298  1.0000
  F           0.55639      0.44951      0.42176  1.0000
