data_cif

_audit_creation_method             'generated by GULP'

_symmetry_space_group_name_H-M     'P 1'
_symmetry_Int_Tables_number        1
_symmetry_cell_setting             triclinic

_cell_length_a                       11.9097
_cell_length_b                       11.9282
_cell_length_c                       29.5017
_cell_angle_alpha                   89.9645
_cell_angle_beta                    89.7254
_cell_angle_gamma                  119.4079

loop_
_atom_site_label
_atom_site_fract_x
_atom_site_fract_y
_atom_site_fract_z
_atom_site_occupancy
  Si          0.69960      0.37570      0.03389  1.0000
  Si          0.61813      0.31919      0.36632  1.0000
  Si          0.67752      0.28753      0.69499  1.0000
  Si          0.29141      0.60950      0.53391  1.0000
  Si          0.38611      0.66661      0.86910  1.0000
  Si          0.32509      0.69996      0.20065  1.0000
  Si          0.37876      0.70010      0.30131  1.0000
  Si          0.32772      0.61483      0.97118  1.0000
  Si          0.28219      0.65736      0.63418  1.0000
  Si          0.62832      0.28806      0.79791  1.0000
  Si          0.67161      0.37179      0.46651  1.0000
  Si          0.70409      0.32373      0.13549  1.0000
  Ge          0.53378      0.42541      0.96576  1.0000
  Si          0.58072      0.10981      0.30145  1.0000
  Si          0.87868      0.46448      0.63153  1.0000
  Si          0.46625      0.57507      0.46849  1.0000
  Si          0.42331      0.87369      0.80194  1.0000
  Si          0.11561      0.52796      0.13596  1.0000
  Si          0.41444      0.52686      0.36697  1.0000
  Si          0.11303      0.57700      0.03482  1.0000
  Si          0.46623      0.86123      0.69828  1.0000
  Si          0.59766      0.45747      0.86666  1.0000
  Si          0.88198      0.41048      0.53062  1.0000
  Si          0.53029      0.11241      0.19997  1.0000
  Si          0.30940      0.38450      0.85447  1.0000
  Si          0.60221      0.90189      0.18597  1.0000
  Si          0.09204      0.68983      0.51778  1.0000
  Si          0.69597      0.59785      0.35264  1.0000
  Si          0.39641      0.07762      0.68311  1.0000
  Si          0.90511      0.29890      0.02073  1.0000
  Si          0.39328      0.29367      0.48227  1.0000
  Si          0.90559      0.60043      0.15014  1.0000
  Si          0.70774      0.08493      0.81727  1.0000
  Si          0.61175      0.69791      0.98877  1.0000
  Si          0.07972      0.38136      0.64934  1.0000
  Si          0.30102      0.90231      0.31614  1.0000
  Si          0.25398      0.32691      0.95668  1.0000
  Si          0.65886      0.90782      0.28635  1.0000
  Si          0.08082      0.74037      0.61806  1.0000
  Si          0.74599      0.65404      0.45321  1.0000
  Si          0.34166      0.07543      0.78538  1.0000
  Si          0.91501      0.25114      0.12117  1.0000
  Si          0.33640      0.24741      0.38160  1.0000
  Si          0.91134      0.65537      0.04934  1.0000
  Ge          0.72987      0.07214      0.71734  1.0000
  Si          0.67208      0.73813      0.88562  1.0000
  Si          0.08119      0.32951      0.54836  1.0000
  Si          0.25296      0.91053      0.21556  1.0000
  Si          0.97074      0.11696      0.97045  1.0000
  Si          0.87768      0.84571      0.30260  1.0000
  Si          0.14720      0.02045      0.63507  1.0000
  Si          0.02531      0.87199      0.46828  1.0000
  Si          0.12399      0.14196      0.80212  1.0000
  Si          0.85299      0.97163      0.13711  1.0000
  Si          0.11931      0.96899      0.36765  1.0000
  Si          0.85520      0.87979      0.03679  1.0000
  Si          0.01753      0.13541      0.70203  1.0000
  Si          0.88416      0.01965      0.86994  1.0000
  Si          0.14649      0.11310      0.53387  1.0000
  Si          0.97277      0.84713      0.20176  1.0000
  O2          0.93618      0.99968      0.00405  1.0000
  O2          0.99608      0.92567      0.33605  1.0000
  O2          0.07767      0.06712      0.67037  1.0000
  O2          0.06560      0.98939      0.50273  1.0000
  O2          0.00660      0.06364      0.83686  1.0000
  O2          0.92979      0.92995      0.17121  1.0000
  O2          0.33911      0.57739      0.33444  1.0000
  O2          0.40222      0.73215      0.66841  1.0000
  O2          0.23937      0.65273      0.00194  1.0000
  O2          0.66692      0.41427      0.82809  1.0000
  O2          0.58006      0.23868      0.16796  1.0000
  O2          0.75798      0.33281      0.49830  1.0000
  O3          0.58220      0.33825      0.00184  1.0000
  O2          0.74995      0.41456      0.66298  1.0000
  O2          0.65741      0.23496      0.33352  1.0000
  O2          0.41603      0.64964      0.50172  1.0000
  O2          0.24138      0.57730      0.16819  1.0000
  O2          0.34911      0.75079      0.83571  1.0000
  O2          0.12259      0.20916      0.97580  1.0000
  O2          0.78567      0.90901      0.30669  1.0000
  O2          0.07976      0.86576      0.63874  1.0000
  O2          0.87109      0.78028      0.47315  1.0000
  O2          0.21676      0.07769      0.80563  1.0000
  O2          0.91503      0.12525      0.14205  1.0000
  O2          0.20963      0.12281      0.36170  1.0000
  O2          0.91101      0.78228      0.02935  1.0000
  O3          0.86840      0.06420      0.69692  1.0000
  O2          0.79537      0.86501      0.86484  1.0000
  O2          0.08220      0.20378      0.52797  1.0000
  O2          0.12659      0.91025      0.19523  1.0000
  O2          0.93537      0.85766      0.25292  1.0000
  O2          0.13627      0.06611      0.58521  1.0000
  O2          0.93547      0.05966      0.92029  1.0000
  O2          0.07062      0.13421      0.75245  1.0000
  O2          0.87302      0.93126      0.08744  1.0000
  O2          0.06762      0.93086      0.41853  1.0000
  O2          0.89953      0.19860      0.98193  1.0000
  O2          0.79508      0.69445      0.31457  1.0000
  O2          0.29929      0.07965      0.64568  1.0000
  O2          0.09517      0.78851      0.47912  1.0000
  O2          0.21169      0.29181      0.81582  1.0000
  O2          0.70019      0.90183      0.14742  1.0000
  O2          0.20232      0.89974      0.35492  1.0000
  O2          0.70367      0.80937      0.02424  1.0000
  O2          0.07821      0.28690      0.68882  1.0000
  O2          0.79713      0.08569      0.85909  1.0000
  O2          0.29736      0.19412      0.52055  1.0000
  O2          0.90282      0.69690      0.18845  1.0000
  O2          0.32414      0.64295      0.25105  1.0000
  O2          0.34542      0.66357      0.58445  1.0000
  O2          0.32985      0.66374      0.91931  1.0000
  O2          0.68016      0.33695      0.74702  1.0000
  O2          0.64896      0.32521      0.08557  1.0000
  O2          0.67393      0.31598      0.41635  1.0000
  O3          0.36753      0.30846      0.97513  1.0000
  O2          0.66840      0.04028      0.30460  1.0000
  O2          0.94586      0.61997      0.63526  1.0000
  O2          0.62211      0.66296      0.47167  1.0000
  O2          0.33912      0.94696      0.80451  1.0000
  O2          0.04717      0.37196      0.13976  1.0000
  O2          0.32684      0.37112      0.36390  1.0000
  O2          0.04592      0.66682      0.03120  1.0000
  O3          0.61783      0.92129      0.69346  1.0000
  O2          0.68009      0.61557      0.86600  1.0000
  O2          0.95155      0.32271      0.52851  1.0000
  O2          0.37399      0.04308      0.19700  1.0000
  O2          0.77224      0.30019      0.01387  1.0000
  O2          0.69443      0.46292      0.34453  1.0000
  O2          0.52938      0.21118      0.67704  1.0000
  O2          0.22495      0.68627      0.51087  1.0000
  O2          0.31634      0.52273      0.84859  1.0000
  O2          0.46890      0.76856      0.17835  1.0000
  O2          0.30262      0.76862      0.32345  1.0000
  O2          0.47254      0.69309      0.99090  1.0000
  O2          0.21381      0.51430      0.65605  1.0000
  O2          0.69979      0.21705      0.82120  1.0000
  O2          0.52876      0.29503      0.48936  1.0000
  O2          0.77316      0.46623      0.15811  1.0000
  O2          0.78822      0.53188      0.02897  1.0000
  O2          0.46214      0.24661      0.36152  1.0000
  O3          0.75583      0.21209      0.68780  1.0000
  O2          0.20972      0.45383      0.52990  1.0000
  O2          0.54081      0.73153      0.86803  1.0000
  O2          0.25194      0.78373      0.19614  1.0000
  O2          0.53456      0.78126      0.30607  1.0000
  O2          0.26476      0.46089      0.97461  1.0000
  O2          0.20468      0.73752      0.63897  1.0000
  O2          0.47284      0.19967      0.80101  1.0000
  O2          0.74631      0.52750      0.47234  1.0000
  O2          0.78743      0.25002      0.14023  1.0000
  O2          0.24169      0.31686      0.90157  1.0000
  O2          0.67707      0.90547      0.23211  1.0000
  O2          0.08685      0.76166      0.56381  1.0000
  O2          0.76546      0.67141      0.39897  1.0000
  O2          0.32834      0.07079      0.73132  1.0000
  O2          0.91384      0.23006      0.06697  1.0000
  O2          0.31937      0.22600      0.43583  1.0000
  O2          0.90798      0.67329      0.10357  1.0000
  O3          0.78513      0.08049      0.77412  1.0000
  O2          0.68429      0.75285      0.93973  1.0000
  O2          0.07626      0.30845      0.60259  1.0000
  O2          0.23204      0.90854      0.26981  1.0000
  O3          0.60340      0.56625      0.00151  1.0000
  O2          0.43969      0.02704      0.32495  1.0000
  O2          0.95869      0.40486      0.65645  1.0000
  O2          0.40759      0.43331      0.49136  1.0000
  O2          0.56512      0.95940      0.82328  1.0000
  O2          0.03252      0.58774      0.15900  1.0000
  O2          0.55631      0.58436      0.34411  1.0000
  O2          0.03220      0.43674      0.01102  1.0000
  O2          0.41656      0.95520      0.67641  1.0000
  O2          0.45063      0.40115      0.84741  1.0000
  O2          0.96695      0.55206      0.50813  1.0000
  O2          0.58787      0.02760      0.17702  1.0000
  O2          0.58134      0.16401      0.25083  1.0000
  O2          0.82674      0.41143      0.58099  1.0000
  O3          0.60636      0.40309      0.91453  1.0000
  O2          0.41992      0.82056      0.75131  1.0000
  O2          0.17058      0.57944      0.08499  1.0000
  O2          0.41341      0.57810      0.41799  1.0000
  F           0.45296      0.90288      0.25114  1.0000
  F           0.08723      0.54045      0.58311  1.0000
  F           0.47953      0.51654      0.92844  1.0000
  F           0.58441      0.07626      0.74445  1.0000
  F           0.91481      0.45365      0.08542  1.0000
  F           0.54508      0.44640      0.41769  1.0000
