data_cif

_audit_creation_method             'generated by GULP'

_symmetry_space_group_name_H-M     'P 1'
_symmetry_Int_Tables_number        1
_symmetry_cell_setting             triclinic

_cell_length_a                       11.9096
_cell_length_b                       11.9280
_cell_length_c                       29.5034
_cell_angle_alpha                   89.3192
_cell_angle_beta                    90.5669
_cell_angle_gamma                  119.4041

loop_
_atom_site_label
_atom_site_fract_x
_atom_site_fract_y
_atom_site_fract_z
_atom_site_occupancy
  Si          0.69960      0.37570      0.03389  1.0000
  Si          0.61407      0.31462      0.36890  1.0000
  Si          0.67334      0.28158      0.69825  1.0000
  Si          0.29132      0.60863      0.53419  1.0000
  Si          0.38203      0.66181      0.86670  1.0000
  Si          0.32077      0.69401      0.19767  1.0000
  Si          0.37160      0.69419      0.30086  1.0000
  Si          0.32438      0.61103      0.96874  1.0000
  Si          0.29369      0.66148      0.63470  1.0000
  Si          0.62076      0.28193      0.79873  1.0000
  Si          0.66836      0.36781      0.46918  1.0000
  Si          0.71544      0.32843      0.13522  1.0000
  Ge          0.52868      0.42118      0.96565  1.0000
  Si          0.57769      0.10801      0.30352  1.0000
  Si          0.88369      0.45798      0.63495  1.0000
  Si          0.46156      0.57109      0.46865  1.0000
  Si          0.41978      0.87175      0.80015  1.0000
  Si          0.12062      0.52198      0.13267  1.0000
  Si          0.41141      0.52166      0.36714  1.0000
  Si          0.11199      0.57384      0.03201  1.0000
  Si          0.46883      0.87003      0.69889  1.0000
  Si          0.59420      0.45223      0.86687  1.0000
  Si          0.88088      0.40688      0.53363  1.0000
  Si          0.53304      0.12166      0.19970  1.0000
  Si          0.30613      0.38032      0.85339  1.0000
  Si          0.60210      0.90493      0.18475  1.0000
  Si          0.08880      0.68663      0.51959  1.0000
  Si          0.69300      0.59374      0.35378  1.0000
  Si          0.39619      0.08017      0.68460  1.0000
  Si          0.90193      0.29637      0.01900  1.0000
  Si          0.38973      0.28983      0.48354  1.0000
  Si          0.91897      0.60413      0.14977  1.0000
  Si          0.69861      0.07926      0.81424  1.0000
  Si          0.60835      0.69403      0.98769  1.0000
  Si          0.09304      0.38435      0.64985  1.0000
  Si          0.29273      0.89716      0.31952  1.0000
  Si          0.24891      0.32245      0.95547  1.0000
  Si          0.65804      0.90621      0.28692  1.0000
  Si          0.08377      0.73547      0.62016  1.0000
  Si          0.74125      0.64959      0.45447  1.0000
  Si          0.34017      0.07320      0.78508  1.0000
  Si          0.91791      0.24685      0.11915  1.0000
  Si          0.33229      0.24206      0.38277  1.0000
  Si          0.91388      0.65547      0.04857  1.0000
  Si          0.74643      0.07149      0.71376  1.0000
  Si          0.66795      0.73268      0.88469  1.0000
  Si          0.08348      0.32887      0.54931  1.0000
  Ge          0.27000      0.91017      0.21951  1.0000
  Si          0.96424      0.11372      0.96906  1.0000
  Si          0.87598      0.83912      0.30224  1.0000
  Si          0.14696      0.01524      0.63546  1.0000
  Si          0.01924      0.86848      0.46970  1.0000
  Si          0.12182      0.13504      0.80268  1.0000
  Si          0.85283      0.96692      0.13692  1.0000
  Si          0.11518      0.96355      0.36966  1.0000
  Si          0.85210      0.87672      0.03617  1.0000
  Si          0.02741      0.13669      0.70140  1.0000
  Si          0.87968      0.01412      0.86816  1.0000
  Si          0.14333      0.10955      0.53463  1.0000
  Si          0.98313      0.84909      0.20259  1.0000
  O2          0.93129      0.99815      0.00372  1.0000
  O2          0.99451      0.91855      0.33610  1.0000
  O2          0.07263      0.05756      0.67024  1.0000
  O2          0.06079      0.98705      0.50331  1.0000
  O2          0.00495      0.05677      0.83722  1.0000
  O2          0.92533      0.92156      0.17163  1.0000
  O2          0.33615      0.57162      0.33355  1.0000
  O2          0.41834      0.74459      0.66691  1.0000
  O2          0.23612      0.64954      0.99861  1.0000
  O2          0.66357      0.40820      0.82931  1.0000
  O2          0.59621      0.25164      0.16977  1.0000
  O2          0.75470      0.32927      0.50181  1.0000
  O3          0.57906      0.33660      0.00280  1.0000
  O2          0.75676      0.40657      0.66647  1.0000
  O2          0.65364      0.23042      0.33662  1.0000
  O2          0.41290      0.64751      0.50104  1.0000
  O2          0.24807      0.56943      0.16487  1.0000
  O2          0.34510      0.74610      0.83292  1.0000
  O2          0.11658      0.20488      0.97377  1.0000
  O2          0.78231      0.90182      0.30683  1.0000
  O2          0.08298      0.86100      0.64037  1.0000
  O2          0.86540      0.77598      0.47490  1.0000
  O2          0.21295      0.07028      0.80570  1.0000
  O2          0.91801      0.12106      0.14052  1.0000
  O2          0.20498      0.11769      0.36305  1.0000
  O2          0.91063      0.78169      0.02870  1.0000
  O2          0.87357      0.07227      0.69411  1.0000
  O2          0.79056      0.85981      0.86367  1.0000
  O2          0.08146      0.20251      0.52873  1.0000
  O3          0.13231      0.91858      0.19821  1.0000
  O2          0.92869      0.84892      0.25258  1.0000
  O2          0.13057      0.05837      0.58560  1.0000
  O2          0.92470      0.05541      0.91912  1.0000
  O2          0.06339      0.12486      0.75296  1.0000
  O2          0.86723      0.92372      0.08727  1.0000
  O2          0.05807      0.92695      0.41980  1.0000
  O2          0.89419      0.19626      0.98006  1.0000
  O2          0.79179      0.68857      0.31561  1.0000
  O2          0.29928      0.08195      0.64594  1.0000
  O2          0.08982      0.78549      0.48106  1.0000
  O2          0.20814      0.28579      0.81486  1.0000
  O2          0.70009      0.90420      0.14745  1.0000
  O2          0.20292      0.89677      0.36132  1.0000
  O2          0.70058      0.80546      0.02314  1.0000
  O2          0.09585      0.28781      0.68864  1.0000
  O2          0.79776      0.08252      0.85280  1.0000
  O2          0.29426      0.19003      0.52175  1.0000
  O2          0.92035      0.69840      0.18876  1.0000
  O2          0.32010      0.64367      0.24998  1.0000
  O2          0.34988      0.66307      0.58440  1.0000
  O2          0.32666      0.65965      0.91669  1.0000
  O2          0.67521      0.33729      0.74837  1.0000
  O2          0.65369      0.32549      0.08583  1.0000
  O2          0.67064      0.31222      0.41920  1.0000
  O3          0.36243      0.30421      0.97495  1.0000
  O2          0.66282      0.03538      0.30552  1.0000
  O2          0.95189      0.61372      0.63870  1.0000
  O2          0.61739      0.65881      0.47182  1.0000
  O2          0.33213      0.94099      0.80384  1.0000
  O2          0.05311      0.36622      0.13646  1.0000
  O2          0.32411      0.36614      0.36387  1.0000
  O2          0.04531      0.66434      0.02889  1.0000
  O2          0.62515      0.93845      0.69593  1.0000
  O2          0.67751      0.61051      0.86625  1.0000
  O2          0.95067      0.31955      0.53101  1.0000
  O3          0.38141      0.06070      0.19481  1.0000
  O2          0.76989      0.29989      0.01268  1.0000
  O2          0.68929      0.45768      0.34647  1.0000
  O2          0.52919      0.21351      0.67655  1.0000
  O2          0.22239      0.68509      0.51218  1.0000
  O2          0.31082      0.51743      0.84667  1.0000
  O2          0.46861      0.77164      0.17910  1.0000
  O2          0.29757      0.76304      0.32333  1.0000
  O2          0.46906      0.68918      0.98909  1.0000
  O2          0.22629      0.51813      0.65723  1.0000
  O2          0.69473      0.21138      0.82154  1.0000
  O2          0.52529      0.29133      0.49129  1.0000
  O2          0.78575      0.47073      0.15710  1.0000
  O2          0.78800      0.53196      0.02945  1.0000
  O2          0.45794      0.24027      0.36366  1.0000
  O2          0.74571      0.19716      0.69337  1.0000
  O2          0.20949      0.45316      0.52965  1.0000
  O2          0.53653      0.72495      0.86613  1.0000
  O3          0.24162      0.76872      0.19102  1.0000
  O2          0.52659      0.78335      0.30346  1.0000
  O2          0.26041      0.45691      0.97266  1.0000
  O2          0.21123      0.73604      0.63962  1.0000
  O2          0.46467      0.20063      0.80385  1.0000
  O2          0.74173      0.52340      0.47446  1.0000
  O2          0.79402      0.24933      0.13967  1.0000
  O2          0.23834      0.31218      0.90033  1.0000
  O2          0.67016      0.91001      0.23285  1.0000
  O2          0.08417      0.75581      0.56591  1.0000
  O2          0.76226      0.66651      0.40032  1.0000
  O2          0.32127      0.07521      0.73082  1.0000
  O2          0.91113      0.22485      0.06496  1.0000
  O2          0.31547      0.22210      0.43706  1.0000
  O2          0.91964      0.67600      0.10274  1.0000
  O2          0.76801      0.07494      0.76796  1.0000
  O2          0.68045      0.74891      0.93874  1.0000
  O2          0.08777      0.31031      0.60358  1.0000
  O3          0.21592      0.90376      0.27635  1.0000
  O3          0.59972      0.56246      0.00107  1.0000
  O2          0.43670      0.01945      0.32550  1.0000
  O2          0.96737      0.39899      0.65855  1.0000
  O2          0.40395      0.42960      0.49198  1.0000
  O2          0.56127      0.95190      0.82328  1.0000
  O2          0.04147      0.58276      0.15696  1.0000
  O2          0.55372      0.58235      0.34487  1.0000
  O2          0.02941      0.43337      0.00869  1.0000
  O2          0.41091      0.95491      0.67578  1.0000
  O2          0.44779      0.39897      0.84688  1.0000
  O2          0.96399      0.54815      0.51051  1.0000
  O2          0.58267      0.02799      0.17792  1.0000
  O2          0.57849      0.16059      0.25269  1.0000
  O2          0.82923      0.40710      0.58434  1.0000
  O3          0.60111      0.39767      0.91520  1.0000
  O2          0.41698      0.81662      0.74980  1.0000
  O2          0.17336      0.57558      0.08177  1.0000
  O2          0.40823      0.57284      0.41775  1.0000
  F           0.41483      0.90500      0.24645  1.0000
  F           0.09009      0.53542      0.58490  1.0000
  F           0.47498      0.51226      0.92772  1.0000
  F           0.54501      0.07627      0.74968  1.0000
  F           0.91827      0.44964      0.08361  1.0000
  F           0.54027      0.44197      0.41842  1.0000
