data_cif

_audit_creation_method             'generated by GULP'

_symmetry_space_group_name_H-M     'P 1'
_symmetry_Int_Tables_number        1
_symmetry_cell_setting             triclinic

_cell_length_a                       11.9863
_cell_length_b                       11.9863
_cell_length_c                       29.3017
_cell_angle_alpha                   89.7475
_cell_angle_beta                    90.2524
_cell_angle_gamma                  120.2549

loop_
_atom_site_label
_atom_site_fract_x
_atom_site_fract_y
_atom_site_fract_z
_atom_site_occupancy
  Si          0.69960      0.37570      0.03389  1.0000
  Si          0.61617      0.31932      0.36918  1.0000
  Si          0.68846      0.30758      0.70019  1.0000
  Si          0.31283      0.64312      0.53802  1.0000
  Si          0.37516      0.68919      0.86763  1.0000
  Si          0.31631      0.69653      0.20406  1.0000
  Si          0.37421      0.70108      0.30529  1.0000
  Si          0.31783      0.61765      0.97000  1.0000
  Si          0.30610      0.68994      0.63898  1.0000
  Si          0.64163      0.31430      0.80116  1.0000
  Si          0.68772      0.37664      0.47154  1.0000
  Si          0.69505      0.31780      0.13512  1.0000
  Si          0.52761      0.41129      0.96662  1.0000
  Si          0.57694      0.11093      0.30278  1.0000
  Si          0.89880      0.47876      0.63468  1.0000
  Si          0.47473      0.59231      0.47579  1.0000
  Si          0.42902      0.91119      0.80605  1.0000
  Si          0.10583      0.52404      0.13870  1.0000
  Si          0.40981      0.52910      0.37255  1.0000
  Si          0.10945      0.57841      0.03639  1.0000
  Si          0.47728      0.90028      0.70450  1.0000
  Si          0.59083      0.47620      0.86339  1.0000
  Si          0.90971      0.43050      0.53313  1.0000
  Si          0.52256      0.10731      0.20048  1.0000
  Ge          0.31710      0.41964      0.85872  1.0000
  Si          0.59383      0.89832      0.18758  1.0000
  Si          0.11065      0.71466      0.52092  1.0000
  Si          0.69394      0.60116      0.35550  1.0000
  Si          0.40662      0.10966      0.68797  1.0000
  Si          0.90022      0.29771      0.02072  1.0000
  Ge          0.41817      0.31858      0.48045  1.0000
  Si          0.89684      0.59532      0.15160  1.0000
  Si          0.71318      0.11212      0.81826  1.0000
  Si          0.59967      0.69541      0.98367  1.0000
  Si          0.10818      0.40810      0.65120  1.0000
  Si          0.29623      0.90171      0.31846  1.0000
  Si          0.24368      0.33082      0.95464  1.0000
  Si          0.65458      0.91029      0.28865  1.0000
  Si          0.09711      0.76037      0.62202  1.0000
  Si          0.75480      0.66290      0.45740  1.0000
  Si          0.35482      0.11368      0.78952  1.0000
  Si          0.90378      0.24541      0.12214  1.0000
  Si          0.32934      0.24516      0.38453  1.0000
  Si          0.90881      0.65607      0.05053  1.0000
  Si          0.75889      0.09858      0.71715  1.0000
  Si          0.66142      0.75627      0.88178  1.0000
  Si          0.11221      0.35630      0.54965  1.0000
  Si          0.24393      0.90526      0.21704  1.0000
  Si          0.96851      0.11783      0.97137  1.0000
  Si          0.87116      0.84731      0.30298  1.0000
  Si          0.15765      0.03928      0.63634  1.0000
  Si          0.03510      0.88862      0.47072  1.0000
  Si          0.13248      0.17024      0.80503  1.0000
  Si          0.84139      0.96515      0.13720  1.0000
  Si          0.11635      0.97000      0.36781  1.0000
  Si          0.84582      0.87264      0.03620  1.0000
  Si          0.03780      0.15912      0.70283  1.0000
  Si          0.88714      0.03658      0.86845  1.0000
  Si          0.16877      0.13396      0.53415  1.0000
  Si          0.96367      0.84287      0.20197  1.0000
  O2          0.92289      0.99434      0.00362  1.0000
  O2          0.99287      0.92438      0.33555  1.0000
  O2          0.07859      0.08007      0.66959  1.0000
  O2          0.07430      0.01043      0.50255  1.0000
  O2          0.00895      0.07577      0.83662  1.0000
  O2          0.92207      0.92355      0.16959  1.0000
  O2          0.33645      0.58052      0.33948  1.0000
  O2          0.42623      0.77251      0.67324  1.0000
  O2          0.23623      0.65514      0.00433  1.0000
  O2          0.68197      0.43912      0.83377  1.0000
  O2          0.57029      0.23168      0.16722  1.0000
  O2          0.78901      0.34965      0.49865  1.0000
  O2          0.57904      0.33794      0.99970  1.0000
  O2          0.77103      0.42771      0.66593  1.0000
  O2          0.65367      0.23771      0.33485  1.0000
  O2          0.43764      0.68346      0.50541  1.0000
  O2          0.23019      0.57177      0.17195  1.0000
  O2          0.34816      0.79048      0.84052  1.0000
  O2          0.12158      0.20975      0.98018  1.0000
  O2          0.78249      0.91247      0.30832  1.0000
  O2          0.09452      0.88462      0.64229  1.0000
  O2          0.88135      0.78920      0.47677  1.0000
  O2          0.23314      0.11708      0.81102  1.0000
  O2          0.90359      0.11924      0.14260  1.0000
  O2          0.20827      0.12307      0.35900  1.0000
  O2          0.91099      0.78398      0.03085  1.0000
  O2          0.88314      0.09600      0.69689  1.0000
  O2          0.78772      0.88282      0.86240  1.0000
  O2          0.11561      0.23462      0.52815  1.0000
  O2          0.11776      0.90507      0.19657  1.0000
  O2          0.92326      0.85665      0.25243  1.0000
  O2          0.14372      0.07851      0.58563  1.0000
  O2          0.93399      0.06588      0.92047  1.0000
  O2          0.07702      0.14520      0.75355  1.0000
  O2          0.85516      0.92474      0.08674  1.0000
  O2          0.06440      0.93547      0.41870  1.0000
  O2          0.89756      0.19909      0.98246  1.0000
  O2          0.78558      0.69558      0.31552  1.0000
  O2          0.30954      0.10862      0.64908  1.0000
  O2          0.11074      0.81225      0.48216  1.0000
  O3          0.20243      0.31685      0.81678  1.0000
  O2          0.68946      0.89493      0.14911  1.0000
  O2          0.19761      0.89905      0.35671  1.0000
  O2          0.69409      0.78705      0.02366  1.0000
  O2          0.10715      0.31101      0.69010  1.0000
  O2          0.81076      0.11221      0.85701  1.0000
  O3          0.31538      0.20391      0.52240  1.0000
  O2          0.89345      0.69094      0.19007  1.0000
  O2          0.31626      0.64102      0.25502  1.0000
  O2          0.36851      0.69703      0.58889  1.0000
  O2          0.32000      0.67670      0.92000  1.0000
  O2          0.69555      0.36998      0.75029  1.0000
  O2          0.63954      0.31774      0.08416  1.0000
  O2          0.67523      0.32149      0.41917  1.0000
  O2          0.37179      0.32505      0.97032  1.0000
  O2          0.66451      0.04269      0.30668  1.0000
  O2          0.96482      0.63460      0.63897  1.0000
  O2          0.63242      0.67266      0.47465  1.0000
  O2          0.34352      0.98079      0.80823  1.0000
  O2          0.03601      0.36754      0.14121  1.0000
  O2          0.32357      0.37328      0.36886  1.0000
  O2          0.04121      0.66599      0.03249  1.0000
  O2          0.63312      0.96630      0.70020  1.0000
  O2          0.67117      0.63389      0.86453  1.0000
  O2          0.97932      0.34500      0.53095  1.0000
  O2          0.36606      0.03749      0.19797  1.0000
  O2          0.76843      0.30117      0.01221  1.0000
  O2          0.68878      0.46535      0.34889  1.0000
  O2          0.54354      0.24015      0.67898  1.0000
  O2          0.24712      0.71944      0.51455  1.0000
  O3          0.29961      0.55391      0.84284  1.0000
  O2          0.45907      0.76366      0.18111  1.0000
  O2          0.29969      0.76991      0.32696  1.0000
  O2          0.46386      0.69026      0.99028  1.0000
  O2          0.23867      0.54502      0.66020  1.0000
  O2          0.71796      0.24859      0.82463  1.0000
  O3          0.55244      0.30109      0.49633  1.0000
  O2          0.76218      0.46055      0.15807  1.0000
  O2          0.78146      0.53235      0.03005  1.0000
  O2          0.46105      0.25255      0.36599  1.0000
  O2          0.76073      0.22426      0.69627  1.0000
  O2          0.23518      0.48752      0.53128  1.0000
  O2          0.53210      0.75199      0.86460  1.0000
  O2          0.24248      0.77822      0.19828  1.0000
  O2          0.53086      0.78294      0.30912  1.0000
  O2          0.25106      0.46252      0.97319  1.0000
  O2          0.22278      0.76221      0.64291  1.0000
  O2          0.48604      0.23665      0.80789  1.0000
  O2          0.75052      0.53358      0.47457  1.0000
  O2          0.77673      0.24396      0.14090  1.0000
  O3          0.21443      0.30756      0.90197  1.0000
  O2          0.67092      0.90662      0.23409  1.0000
  O2          0.10102      0.78182      0.56736  1.0000
  O2          0.76380      0.67147      0.40230  1.0000
  O2          0.33721      0.11301      0.73475  1.0000
  O2          0.90247      0.22686      0.06761  1.0000
  O3          0.30608      0.21592      0.43721  1.0000
  O2          0.90514      0.67240      0.10509  1.0000
  O2          0.78034      0.10249      0.77182  1.0000
  O2          0.66999      0.76527      0.93688  1.0000
  O2          0.11153      0.33869      0.60443  1.0000
  O2          0.22538      0.90396      0.27157  1.0000
  O2          0.57945      0.55316      0.98810  1.0000
  O2          0.43598      0.02862      0.32637  1.0000
  O2          0.98119      0.42009      0.65801  1.0000
  O3          0.41768      0.45708      0.50122  1.0000
  O2          0.57178      0.99033      0.82901  1.0000
  O2          0.02115      0.58037      0.16155  1.0000
  O2          0.55169      0.58094      0.35107  1.0000
  O2          0.02713      0.43746      0.01280  1.0000
  O2          0.41861      0.98267      0.68116  1.0000
  O3          0.45559      0.41916      0.83796  1.0000
  O2          0.98886      0.57326      0.51017  1.0000
  O2          0.57889      0.02263      0.17763  1.0000
  O2          0.57728      0.16251      0.25132  1.0000
  O2          0.84952      0.42785      0.58305  1.0000
  O2          0.57946      0.41773      0.91531  1.0000
  O2          0.42637      0.85099      0.75612  1.0000
  O2          0.16103      0.57876      0.08785  1.0000
  O2          0.41626      0.58095      0.42387  1.0000
  F           0.44699      0.90072      0.25313  1.0000
  F           0.11061      0.56488      0.58514  1.0000
  F           0.42333      0.52128      0.90777  1.0000
  F           0.56341      0.11209      0.75403  1.0000
  F           0.89924      0.44848      0.08604  1.0000
  F           0.51981      0.42482      0.43141  1.0000
