data_cif

_audit_creation_method             'generated by GULP'

_symmetry_space_group_name_H-M     'P 1'
_symmetry_Int_Tables_number        1
_symmetry_cell_setting             triclinic

_cell_length_a                       11.9472
_cell_length_b                       12.0033
_cell_length_c                       29.3146
_cell_angle_alpha                   90.0001
_cell_angle_beta                    90.8979
_cell_angle_gamma                  120.1556

loop_
_atom_site_label
_atom_site_fract_x
_atom_site_fract_y
_atom_site_fract_z
_atom_site_occupancy
  Si          0.69960      0.37570      0.03389  1.0000
  Si          0.62695      0.32965      0.36800  1.0000
  Si          0.69845      0.30680      0.70236  1.0000
  Si          0.31360      0.62834      0.53823  1.0000
  Si          0.36034      0.67842      0.86851  1.0000
  Si          0.32162      0.70075      0.20401  1.0000
  Si          0.38366      0.70800      0.30521  1.0000
  Si          0.31217      0.61367      0.97085  1.0000
  Si          0.31102      0.68141      0.63932  1.0000
  Si          0.65027      0.32339      0.80470  1.0000
  Si          0.68900      0.38444      0.46919  1.0000
  Si          0.69702      0.32006      0.13497  1.0000
  Si          0.52760      0.41368      0.96635  1.0000
  Si          0.58771      0.11876      0.30255  1.0000
  Si          0.90377      0.47485      0.63602  1.0000
  Si          0.48269      0.58887      0.47294  1.0000
  Si          0.42480      0.90041      0.80946  1.0000
  Si          0.10747      0.52522      0.13924  1.0000
  Si          0.42291      0.53636      0.37066  1.0000
  Si          0.10684      0.57639      0.03719  1.0000
  Si          0.48302      0.89138      0.70686  1.0000
  Si          0.58582      0.48092      0.86375  1.0000
  Si          0.90315      0.42305      0.53396  1.0000
  Si          0.52793      0.11149      0.20026  1.0000
  Ge          0.30811      0.41231      0.85920  1.0000
  Si          0.59858      0.90196      0.18768  1.0000
  Si          0.11184      0.70419      0.52110  1.0000
  Si          0.70292      0.60749      0.35504  1.0000
  Si          0.41333      0.10544      0.68971  1.0000
  Si          0.89897      0.29530      0.02060  1.0000
  Si          0.41204      0.30869      0.48553  1.0000
  Si          0.89878      0.59766      0.15211  1.0000
  Ge          0.70251      0.10951      0.81401  1.0000
  Si          0.59729      0.69743      0.98350  1.0000
  Si          0.11165      0.40163      0.65261  1.0000
  Si          0.30769      0.90987      0.31816  1.0000
  Si          0.24074      0.32809      0.95523  1.0000
  Si          0.66406      0.91693      0.28880  1.0000
  Si          0.10292      0.75381      0.62214  1.0000
  Si          0.76066      0.66510      0.45623  1.0000
  Si          0.35796      0.11201      0.79142  1.0000
  Si          0.90565      0.24670      0.12224  1.0000
  Si          0.34656      0.25818      0.38440  1.0000
  Si          0.90769      0.65619      0.05107  1.0000
  Si          0.76988      0.09266      0.71798  1.0000
  Si          0.65266      0.75937      0.88179  1.0000
  Si          0.10497      0.34636      0.55097  1.0000
  Si          0.24996      0.90975      0.21698  1.0000
  Si          0.96662      0.11464      0.97092  1.0000
  Si          0.88162      0.85384      0.30391  1.0000
  Si          0.16472      0.03298      0.63680  1.0000
  Si          0.04229      0.88347      0.47061  1.0000
  Si          0.12788      0.16047      0.80579  1.0000
  Si          0.84452      0.96773      0.13748  1.0000
  Si          0.12900      0.97752      0.36930  1.0000
  Si          0.84590      0.87358      0.03641  1.0000
  Si          0.04401      0.15333      0.70229  1.0000
  Si          0.88274      0.03791      0.86742  1.0000
  Si          0.16610      0.12851      0.53572  1.0000
  Si          0.96833      0.84649      0.20259  1.0000
  O2          0.92264      0.99340      0.00377  1.0000
  O2          0.00531      0.93450      0.33660  1.0000
  O2          0.08799      0.07607      0.66944  1.0000
  O2          0.08544      0.00664      0.50275  1.0000
  O2          0.00531      0.06532      0.83660  1.0000
  O2          0.92518      0.92652      0.17046  1.0000
  O2          0.34575      0.58701      0.33872  1.0000
  O2          0.43138      0.76572      0.67419  1.0000
  O2          0.23273      0.65244      0.00533  1.0000
  O2          0.68068      0.45153      0.83312  1.0000
  O2          0.57331      0.23427      0.16695  1.0000
  O2          0.77673      0.34585      0.50085  1.0000
  O2          0.57924      0.33965      0.99902  1.0000
  O2          0.77789      0.42502      0.66788  1.0000
  O2          0.66487      0.24657      0.33449  1.0000
  O2          0.43731      0.66626      0.50625  1.0000
  O2          0.23389      0.57443      0.17235  1.0000
  O2          0.32994      0.77616      0.84008  1.0000
  O2          0.12034      0.20754      0.98061  1.0000
  O2          0.79262      0.91912      0.30880  1.0000
  O2          0.10117      0.87913      0.64192  1.0000
  O2          0.88835      0.79129      0.47668  1.0000
  O2          0.23604      0.11515      0.81210  1.0000
  O2          0.90650      0.12162      0.14290  1.0000
  O2          0.21800      0.13181      0.36441  1.0000
  O2          0.90945      0.78328      0.03128  1.0000
  O2          0.89028      0.09251      0.69259  1.0000
  O2          0.77458      0.88442      0.86110  1.0000
  O2          0.10412      0.22043      0.53031  1.0000
  O2          0.12227      0.90825      0.19653  1.0000
  O2          0.93274      0.86262      0.25341  1.0000
  O2          0.15275      0.07425      0.58615  1.0000
  O2          0.93260      0.06116      0.92010  1.0000
  O2          0.07802      0.13387      0.75311  1.0000
  O2          0.85787      0.92682      0.08705  1.0000
  O2          0.07788      0.93518      0.41980  1.0000
  O2          0.89563      0.19628      0.98229  1.0000
  O2          0.79828      0.70325      0.31634  1.0000
  O2          0.31743      0.10125      0.64947  1.0000
  O2          0.11377      0.80285      0.48264  1.0000
  O3          0.19435      0.30723      0.81697  1.0000
  O2          0.69257      0.89770      0.14905  1.0000
  O2          0.21234      0.91028      0.35686  1.0000
  O2          0.69319      0.78914      0.02373  1.0000
  O2          0.11499      0.30596      0.69092  1.0000
  O3          0.81627      0.11819      0.85624  1.0000
  O2          0.31805      0.21043      0.52415  1.0000
  O2          0.89685      0.69440      0.19057  1.0000
  O2          0.32424      0.64728      0.25489  1.0000
  O2          0.37088      0.68421      0.58931  1.0000
  O2          0.30893      0.66950      0.92081  1.0000
  O2          0.70169      0.36588      0.75239  1.0000
  O2          0.63973      0.31863      0.08390  1.0000
  O2          0.68638      0.32835      0.41831  1.0000
  O2          0.37182      0.32615      0.97040  1.0000
  O2          0.67577      0.05066      0.30639  1.0000
  O2          0.97116      0.63063      0.64000  1.0000
  O2          0.63974      0.67568      0.47539  1.0000
  O2          0.34650      0.97831      0.80781  1.0000
  O2          0.03842      0.36923      0.14160  1.0000
  O2          0.33485      0.38020      0.36682  1.0000
  O2          0.03945      0.66478      0.03321  1.0000
  O2          0.63880      0.95963      0.70280  1.0000
  O2          0.66411      0.63712      0.86539  1.0000
  O2          0.97220      0.33611      0.53160  1.0000
  O2          0.37087      0.04124      0.19782  1.0000
  O2          0.76676      0.29954      0.01224  1.0000
  O2          0.70082      0.47320      0.34634  1.0000
  O2          0.55089      0.23407      0.68253  1.0000
  O2          0.24645      0.70419      0.51511  1.0000
  O3          0.28461      0.54276      0.84366  1.0000
  O2          0.46353      0.76741      0.18098  1.0000
  O2          0.30980      0.77769      0.32686  1.0000
  O2          0.45973      0.68849      0.99068  1.0000
  O2          0.24386      0.53809      0.66096  1.0000
  O3          0.72601      0.26346      0.82955  1.0000
  O2          0.54709      0.30919      0.49223  1.0000
  O2          0.76417      0.46305      0.15809  1.0000
  O2          0.78016      0.53190      0.03037  1.0000
  O2          0.47006      0.25640      0.36371  1.0000
  O2          0.76351      0.21741      0.69938  1.0000
  O2          0.23156      0.47253      0.53243  1.0000
  O2          0.51767      0.74505      0.86475  1.0000
  O2          0.24710      0.78201      0.19822  1.0000
  O2          0.54055      0.79164      0.30950  1.0000
  O2          0.24711      0.45922      0.97382  1.0000
  O2          0.23045      0.75704      0.64284  1.0000
  O2          0.49295      0.23269      0.80846  1.0000
  O2          0.76352      0.54022      0.47499  1.0000
  O2          0.77906      0.24629      0.14078  1.0000
  O3          0.20909      0.30210      0.90246  1.0000
  O2          0.67749      0.91085      0.23423  1.0000
  O2          0.10498      0.77315      0.56757  1.0000
  O2          0.77687      0.68239      0.40165  1.0000
  O2          0.34706      0.11141      0.73623  1.0000
  O2          0.90272      0.22663      0.06772  1.0000
  O2          0.33313      0.23866      0.43897  1.0000
  O2          0.90564      0.67349      0.10564  1.0000
  O3          0.80153      0.09832      0.77075  1.0000
  O2          0.66356      0.76966      0.93697  1.0000
  O2          0.10790      0.32922      0.60549  1.0000
  O2          0.23375      0.91084      0.27156  1.0000
  O2          0.58059      0.55663      0.98716  1.0000
  O2          0.44778      0.03642      0.32623  1.0000
  O2          0.98564      0.41568      0.65999  1.0000
  O2          0.42697      0.44772      0.49552  1.0000
  O3          0.56164      0.97321      0.83519  1.0000
  O2          0.02332      0.58203      0.16215  1.0000
  O2          0.56284      0.59395      0.34698  1.0000
  O2          0.02497      0.43535      0.01322  1.0000
  O2          0.43003      0.98135      0.68604  1.0000
  O3          0.44898      0.41688      0.83801  1.0000
  O2          0.98730      0.56402      0.51106  1.0000
  O2          0.58365      0.02606      0.17769  1.0000
  O2          0.58496      0.16815      0.25110  1.0000
  O2          0.84957      0.42267      0.58467  1.0000
  O2          0.57719      0.41972      0.91485  1.0000
  O2          0.43344      0.84784      0.75836  1.0000
  O2          0.16105      0.57842      0.08854  1.0000
  O2          0.42566      0.58851      0.42211  1.0000
  F           0.45386      0.90654      0.25292  1.0000
  F           0.11114      0.55486      0.58693  1.0000
  F           0.41654      0.51778      0.90796  1.0000
  F           0.59408      0.10654      0.76525  1.0000
  F           0.89948      0.44903      0.08628  1.0000
  F           0.55676      0.45799      0.42029  1.0000
