data_cif

_audit_creation_method             'generated by GULP'

_symmetry_space_group_name_H-M     'P 1'
_symmetry_Int_Tables_number        1
_symmetry_cell_setting             triclinic

_cell_length_a                       11.9667
_cell_length_b                       11.9747
_cell_length_c                       29.3156
_cell_angle_alpha                   89.6179
_cell_angle_beta                    90.7647
_cell_angle_gamma                  119.9777

loop_
_atom_site_label
_atom_site_fract_x
_atom_site_fract_y
_atom_site_fract_z
_atom_site_occupancy
  Si          0.69960      0.37570      0.03389  1.0000
  Si          0.62509      0.32085      0.36793  1.0000
  Si          0.68081      0.30982      0.70102  1.0000
  Si          0.30837      0.61814      0.53593  1.0000
  Si          0.37427      0.68486      0.86470  1.0000
  Si          0.32441      0.70027      0.20088  1.0000
  Si          0.38219      0.70027      0.30210  1.0000
  Si          0.31610      0.61814      0.96705  1.0000
  Si          0.31691      0.68486      0.63828  1.0000
  Si          0.63532      0.30982      0.80196  1.0000
  Si          0.68243      0.37570      0.46909  1.0000
  Si          0.70209      0.32085      0.13505  1.0000
  Si          0.52502      0.41117      0.96737  1.0000
  Si          0.58636      0.11104      0.30263  1.0000
  Si          0.89138      0.47278      0.63857  1.0000
  Si          0.47591      0.57861      0.46970  1.0000
  Si          0.42902      0.90615      0.80211  1.0000
  Si          0.11262      0.52708      0.13554  1.0000
  Si          0.42079      0.52708      0.36744  1.0000
  Si          0.10903      0.57861      0.03328  1.0000
  Si          0.48344      0.90615      0.70087  1.0000
  Si          0.58772      0.47278      0.86441  1.0000
  Si          0.89247      0.41117      0.53560  1.0000
  Si          0.53100      0.11104      0.20035  1.0000
  Ge          0.31328      0.41375      0.85727  1.0000
  Si          0.60187      0.90185      0.18632  1.0000
  Si          0.10455      0.69599      0.52010  1.0000
  Si          0.70097      0.59869      0.35301  1.0000
  Si          0.40342      0.10934      0.68698  1.0000
  Si          0.89980      0.29781      0.01897  1.0000
  Si          0.40434      0.29781      0.48401  1.0000
  Si          0.90406      0.59869      0.14997  1.0000
  Si          0.71223      0.10934      0.81600  1.0000
  Si          0.59777      0.69600      0.98288  1.0000
  Ge          0.10679      0.41374      0.64570  1.0000
  Si          0.30631      0.90185      0.31665  1.0000
  Si          0.24152      0.33076      0.95363  1.0000
  Si          0.66282      0.90935      0.28748  1.0000
  Si          0.09933      0.75355      0.62188  1.0000
  Si          0.75398      0.65612      0.45411  1.0000
  Si          0.35040      0.10718      0.78822  1.0000
  Si          0.91059      0.24846      0.12037  1.0000
  Si          0.34420      0.24846      0.38261  1.0000
  Si          0.90847      0.65612      0.04887  1.0000
  Si          0.76310      0.10718      0.71476  1.0000
  Si          0.66054      0.75355      0.88110  1.0000
  Si          0.09556      0.33075      0.54935  1.0000
  Si          0.25286      0.90935      0.21550  1.0000
  Si          0.96723      0.11765      0.96990  1.0000
  Si          0.88055      0.84626      0.30211  1.0000
  Si          0.15301      0.03272      0.63593  1.0000
  Si          0.03430      0.87333      0.46821  1.0000
  Si          0.12822      0.16375      0.80293  1.0000
  Si          0.84830      0.96847      0.13582  1.0000
  Si          0.12651      0.96847      0.36715  1.0000
  Si          0.84536      0.87333      0.03477  1.0000
  Si          0.04185      0.16375      0.70005  1.0000
  Si          0.88603      0.03273      0.86705  1.0000
  Si          0.15674      0.11764      0.53308  1.0000
  Si          0.97204      0.84626      0.20087  1.0000
  O2          0.92174      0.99447      0.00220  1.0000
  O2          0.00409      0.92679      0.33435  1.0000
  O2          0.07071      0.07041      0.66806  1.0000
  O2          0.07907      0.99447      0.50078  1.0000
  O2          0.00602      0.07042      0.83492  1.0000
  O2          0.92903      0.92679      0.16863  1.0000
  O2          0.34382      0.57686      0.33488  1.0000
  O2          0.44259      0.78436      0.66732  1.0000
  O2          0.23320      0.65570      0.00055  1.0000
  O2          0.67727      0.43256      0.83552  1.0000
  O2          0.57959      0.23655      0.16778  1.0000
  O2          0.76781      0.33750      0.50216  1.0000
  O2          0.57601      0.33750      0.00082  1.0000
  O2          0.76160      0.43255      0.66745  1.0000
  O2          0.66329      0.23655      0.33520  1.0000
  O2          0.42883      0.65570      0.50243  1.0000
  O2          0.23937      0.57686      0.16810  1.0000
  O2          0.34808      0.78436      0.83566  1.0000
  O2          0.11985      0.21080      0.97921  1.0000
  O2          0.79012      0.90989      0.30758  1.0000
  O2          0.09809      0.87881      0.64107  1.0000
  O2          0.88061      0.78284      0.47411  1.0000
  O2          0.22829      0.10915      0.80965  1.0000
  O2          0.91199      0.12271      0.14072  1.0000
  O2          0.21705      0.12271      0.36226  1.0000
  O2          0.90855      0.78284      0.02886  1.0000
  O2          0.88717      0.10914      0.69332  1.0000
  O2          0.78704      0.87881      0.86191  1.0000
  O2          0.09728      0.21080      0.52376  1.0000
  O2          0.12610      0.90989      0.19540  1.0000
  O2          0.93232      0.85831      0.25149  1.0000
  O2          0.13724      0.06527      0.58401  1.0000
  O2          0.93435      0.06527      0.91897  1.0000
  O2          0.07272      0.13911      0.75149  1.0000
  O2          0.85912      0.92579      0.08547  1.0000
  O2          0.07299      0.92578      0.41751  1.0000
  O2          0.89501      0.19824      0.98066  1.0000
  O2          0.79824      0.69494      0.31443  1.0000
  O2          0.30516      0.10742      0.64788  1.0000
  O2          0.10289      0.78937      0.48031  1.0000
  O3          0.19915      0.31023      0.81538  1.0000
  O2          0.69712      0.89990      0.14779  1.0000
  O2          0.20911      0.89990      0.35519  1.0000
  O2          0.69280      0.78937      0.02267  1.0000
  O3          0.11740      0.31022      0.68760  1.0000
  O2          0.80857      0.10742      0.85509  1.0000
  O2          0.30956      0.19824      0.52232  1.0000
  O2          0.90303      0.69494      0.18855  1.0000
  O2          0.32468      0.64303      0.25149  1.0000
  O2          0.36341      0.67543      0.58633  1.0000
  O2          0.31835      0.67543      0.91665  1.0000
  O2          0.68763      0.36895      0.75149  1.0000
  O2          0.64320      0.31923      0.08440  1.0000
  O2          0.68236      0.31924      0.41858  1.0000
  O2          0.36946      0.32526      0.97045  1.0000
  O2          0.67370      0.04194      0.30586  1.0000
  O2          0.96678      0.62999      0.63827  1.0000
  O2          0.63228      0.66570      0.47288  1.0000
  O2          0.34189      0.97427      0.80539  1.0000
  O2          0.04385      0.37092      0.13866  1.0000
  O2          0.33340      0.37092      0.36432  1.0000
  O2          0.03975      0.66570      0.03010  1.0000
  O2          0.63869      0.97427      0.69759  1.0000
  O2          0.66953      0.62999      0.86471  1.0000
  O2          0.96213      0.32526      0.53253  1.0000
  O2          0.37457      0.04194      0.19712  1.0000
  O2          0.76691      0.30060      0.01147  1.0000
  O2          0.69993      0.46425      0.34557  1.0000
  O2          0.53668      0.24287      0.67881  1.0000
  O2          0.23617      0.69165      0.51492  1.0000
  O3          0.29815      0.54900      0.84039  1.0000
  O2          0.46724      0.76842      0.17859  1.0000
  O2          0.30751      0.76841      0.32439  1.0000
  O2          0.46181      0.69165      0.98806  1.0000
  O3          0.25718      0.54900      0.66259  1.0000
  O2          0.71250      0.24287      0.82417  1.0000
  O2          0.54002      0.30060      0.49151  1.0000
  O2          0.77065      0.46425      0.15741  1.0000
  O2          0.78017      0.53189      0.02929  1.0000
  O2          0.46894      0.24751      0.36286  1.0000
  O2          0.75615      0.22983      0.69521  1.0000
  O2          0.22068      0.46331      0.53185  1.0000
  O2          0.53120      0.74866      0.86296  1.0000
  O2          0.25067      0.78273      0.19583  1.0000
  O2          0.53839      0.78273      0.30714  1.0000
  O2          0.24896      0.46331      0.97112  1.0000
  O2          0.22377      0.74865      0.64001  1.0000
  O2          0.47999      0.22983      0.80776  1.0000
  O2          0.75805      0.53189      0.47369  1.0000
  O2          0.78491      0.24751      0.14012  1.0000
  O3          0.21201      0.30513      0.90096  1.0000
  O2          0.67839      0.90692      0.23291  1.0000
  O2          0.10137      0.76370      0.56682  1.0000
  O2          0.77214      0.67407      0.39955  1.0000
  O2          0.33155      0.10808      0.73342  1.0000
  O2          0.90575      0.22850      0.06585  1.0000
  O2          0.32908      0.22850      0.43712  1.0000
  O2          0.90826      0.67407      0.10343  1.0000
  O2          0.78285      0.10808      0.76956  1.0000
  O2          0.66866      0.76371      0.93615  1.0000
  O3          0.09945      0.30513      0.60202  1.0000
  O2          0.23486      0.90692      0.27007  1.0000
  O2          0.57658      0.55350      0.98841  1.0000
  O2          0.44578      0.02717      0.32576  1.0000
  O3          0.96728      0.41405      0.66496  1.0000
  O2          0.41816      0.43719      0.49277  1.0000
  O2          0.57222      0.98474      0.82489  1.0000
  O2          0.02952      0.58429      0.15892  1.0000
  O2          0.56111      0.58429      0.34405  1.0000
  O2          0.02535      0.43719      0.01021  1.0000
  O2          0.41884      0.98474      0.67809  1.0000
  O3          0.45310      0.41406      0.83801  1.0000
  O2          0.98324      0.55349      0.51457  1.0000
  O2          0.58772      0.02717      0.17722  1.0000
  O2          0.58520      0.16407      0.25149  1.0000
  O2          0.84531      0.41630      0.58654  1.0000
  O2          0.57732      0.41630      0.91644  1.0000
  O2          0.42827      0.85023      0.75149  1.0000
  O2          0.16420      0.57980      0.08441  1.0000
  O2          0.42193      0.57980      0.41856  1.0000
  F           0.45438      0.90244      0.25149  1.0000
  F           0.10428      0.51849      0.59634  1.0000
  F           0.42054      0.51850      0.90664  1.0000
  F           0.55870      0.11110      0.75149  1.0000
  F           0.90256      0.44986      0.08437  1.0000
  F           0.55362      0.44986      0.41861  1.0000
