data_cif

_audit_creation_method             'generated by GULP'

_symmetry_space_group_name_H-M     'P 1'
_symmetry_Int_Tables_number        1
_symmetry_cell_setting             triclinic

_cell_length_a                       11.9921
_cell_length_b                       11.9431
_cell_length_c                       29.4151
_cell_angle_alpha                   89.7159
_cell_angle_beta                    90.5264
_cell_angle_gamma                  120.1565

loop_
_atom_site_label
_atom_site_fract_x
_atom_site_fract_y
_atom_site_fract_z
_atom_site_occupancy
  Si          0.69960      0.37570      0.03389  1.0000
  Si          0.62592      0.33278      0.37057  1.0000
  Si          0.68878      0.29985      0.70211  1.0000
  Si          0.30862      0.62777      0.53914  1.0000
  Si          0.38150      0.68332      0.86959  1.0000
  Si          0.32521      0.70762      0.20651  1.0000
  Si          0.38349      0.71149      0.30730  1.0000
  Si          0.32855      0.61287      0.97134  1.0000
  Si          0.30519      0.67914      0.63990  1.0000
  Si          0.64257      0.30540      0.80262  1.0000
  Si          0.68556      0.38431      0.47137  1.0000
  Si          0.70077      0.32678      0.13725  1.0000
  Si          0.52583      0.39877      0.96684  1.0000
  Si          0.58695      0.12321      0.30495  1.0000
  Si          0.89684      0.47211      0.63712  1.0000
  Si          0.48064      0.59093      0.47457  1.0000
  Si          0.43106      0.90196      0.80678  1.0000
  Si          0.11563      0.53419      0.14107  1.0000
  Si          0.42405      0.54042      0.37274  1.0000
  Si          0.12511      0.58849      0.03690  1.0000
  Si          0.47715      0.89016      0.70550  1.0000
  Si          0.59174      0.46679      0.86467  1.0000
  Si          0.89837      0.42160      0.53546  1.0000
  Si          0.53066      0.11620      0.20313  1.0000
  Ge          0.31917      0.41199      0.86015  1.0000
  Si          0.60267      0.90749      0.19042  1.0000
  Si          0.10764      0.70339      0.52269  1.0000
  Si          0.70298      0.61198      0.35728  1.0000
  Si          0.40817      0.10154      0.69008  1.0000
  Si          0.90933      0.30312      0.02143  1.0000
  Si          0.40867      0.30825      0.48774  1.0000
  Si          0.90399      0.60839      0.15660  1.0000
  Si          0.71548      0.10302      0.81922  1.0000
  Si          0.60868      0.68650      0.98588  1.0000
  Si          0.10406      0.39850      0.65350  1.0000
  Si          0.30628      0.91345      0.32036  1.0000
  Si          0.24403      0.32268      0.95547  1.0000
  Si          0.66451      0.92118      0.29129  1.0000
  Si          0.09765      0.75244      0.62332  1.0000
  Si          0.75809      0.66732      0.45809  1.0000
  Si          0.35557      0.10476      0.79095  1.0000
  Si          0.91346      0.25222      0.12401  1.0000
  Si          0.34682      0.26085      0.38687  1.0000
  Ge          0.91488      0.64227      0.05627  1.0000
  Si          0.75836      0.08934      0.71834  1.0000
  Si          0.66708      0.74836      0.88446  1.0000
  Si          0.09956      0.34535      0.55230  1.0000
  Si          0.25237      0.91618      0.21933  1.0000
  Si          0.96902      0.11316      0.97385  1.0000
  Si          0.88306      0.86100      0.30688  1.0000
  Si          0.15915      0.03244      0.63938  1.0000
  Si          0.03919      0.88440      0.47286  1.0000
  Si          0.13332      0.16167      0.80710  1.0000
  Si          0.84641      0.96824      0.13908  1.0000
  Si          0.12778      0.98099      0.37183  1.0000
  Si          0.85378      0.86709      0.03956  1.0000
  Si          0.03666      0.15012      0.70530  1.0000
  Si          0.89018      0.02946      0.87086  1.0000
  Si          0.16178      0.12793      0.53824  1.0000
  Si          0.97241      0.85380      0.20651  1.0000
  O2          0.91880      0.99217      0.00688  1.0000
  O2          0.00450      0.94025      0.33987  1.0000
  O2          0.07963      0.07168      0.67256  1.0000
  O2          0.08204      0.00559      0.50573  1.0000
  O2          0.01273      0.06872      0.83970  1.0000
  O2          0.92644      0.92843      0.17267  1.0000
  O2          0.34608      0.58988      0.34079  1.0000
  O2          0.42609      0.76255      0.67384  1.0000
  O2          0.25434      0.65518      0.00669  1.0000
  O2          0.68314      0.43021      0.83515  1.0000
  O2          0.57838      0.23977      0.16928  1.0000
  O2          0.77249      0.34496      0.50268  1.0000
  O2          0.57510      0.32292      0.00002  1.0000
  O2          0.77050      0.42178      0.66856  1.0000
  O2          0.66389      0.25005      0.33682  1.0000
  O2          0.43336      0.66729      0.50740  1.0000
  O2          0.23923      0.58196      0.17443  1.0000
  O2          0.35283      0.78283      0.84171  1.0000
  O2          0.12286      0.20342      0.98156  1.0000
  O2          0.79216      0.92436      0.31172  1.0000
  O2          0.09577      0.87742      0.64353  1.0000
  O2          0.88520      0.79292      0.47843  1.0000
  O2          0.23377      0.10756      0.81221  1.0000
  O2          0.90945      0.12431      0.14397  1.0000
  O2          0.21885      0.13558      0.36659  1.0000
  O3          0.92447      0.78861      0.03527  1.0000
  O2          0.88244      0.08644      0.69822  1.0000
  O2          0.79268      0.87502      0.86489  1.0000
  O2          0.10001      0.21980      0.53167  1.0000
  O2          0.12616      0.91699      0.19940  1.0000
  O2          0.93810      0.87639      0.25663  1.0000
  O2          0.14663      0.07566      0.58902  1.0000
  O2          0.93318      0.06107      0.92299  1.0000
  O2          0.07422      0.13566      0.75607  1.0000
  O2          0.85579      0.92578      0.08899  1.0000
  O2          0.07694      0.93901      0.42233  1.0000
  O2          0.90490      0.20224      0.98415  1.0000
  O2          0.79969      0.70888      0.31858  1.0000
  O2          0.31075      0.10146      0.65137  1.0000
  O2          0.10940      0.80233      0.48407  1.0000
  O3          0.20466      0.30901      0.81805  1.0000
  O2          0.69588      0.90202      0.15193  1.0000
  O2          0.20920      0.91188      0.35865  1.0000
  O2          0.70128      0.77359      0.02658  1.0000
  O2          0.10526      0.30218      0.69225  1.0000
  O2          0.81329      0.10396      0.85784  1.0000
  O2          0.31360      0.20942      0.52630  1.0000
  O2          0.90461      0.69919      0.19818  1.0000
  O2          0.32608      0.65173      0.25705  1.0000
  O2          0.36470      0.68313      0.58980  1.0000
  O2          0.32587      0.67017      0.92147  1.0000
  O2          0.69576      0.36170      0.75204  1.0000
  O2          0.64924      0.32672      0.08595  1.0000
  O2          0.68396      0.32946      0.42053  1.0000
  O2          0.37039      0.31212      0.96972  1.0000
  O2          0.67491      0.05514      0.30808  1.0000
  O2          0.96471      0.62863      0.64052  1.0000
  O2          0.63709      0.67788      0.47695  1.0000
  O2          0.34497      0.97117      0.80886  1.0000
  O2          0.04358      0.37699      0.14269  1.0000
  O2          0.33611      0.38379      0.36902  1.0000
  O3          0.06416      0.67892      0.03135  1.0000
  O2          0.63283      0.95682      0.70114  1.0000
  O2          0.67315      0.62475      0.86590  1.0000
  O2          0.96761      0.33462      0.53267  1.0000
  O2          0.37460      0.04725      0.19962  1.0000
  O2          0.77685      0.30562      0.01534  1.0000
  O2          0.70069      0.47709      0.34852  1.0000
  O2          0.54409      0.23222      0.68060  1.0000
  O2          0.24172      0.70365      0.51581  1.0000
  O3          0.30574      0.54859      0.84406  1.0000
  O2          0.46676      0.77426      0.18329  1.0000
  O2          0.30824      0.78030      0.32841  1.0000
  O2          0.47473      0.68607      0.99067  1.0000
  O2          0.23704      0.53423      0.66126  1.0000
  O2          0.71959      0.23955      0.82551  1.0000
  O2          0.54313      0.30847      0.49405  1.0000
  O2          0.76969      0.46999      0.15978  1.0000
  O3          0.77147      0.52911      0.02745  1.0000
  O2          0.46968      0.25817      0.36614  1.0000
  O2          0.76094      0.21608      0.69761  1.0000
  O2          0.22721      0.47128      0.53351  1.0000
  O2          0.53826      0.74697      0.86810  1.0000
  O2          0.24889      0.78744      0.20064  1.0000
  O2          0.53952      0.79601      0.31168  1.0000
  O2          0.25711      0.45680      0.97468  1.0000
  O2          0.22285      0.75269      0.64382  1.0000
  O2          0.48726      0.22714      0.80934  1.0000
  O2          0.75899      0.54066      0.47675  1.0000
  O2          0.79114      0.26219      0.14015  1.0000
  O3          0.21361      0.30137      0.90290  1.0000
  O2          0.67884      0.91415      0.23694  1.0000
  O2          0.10179      0.77343      0.56886  1.0000
  O2          0.77565      0.68621      0.40363  1.0000
  O2          0.33807      0.10496      0.73632  1.0000
  O2          0.91538      0.24197      0.06977  1.0000
  O2          0.33184      0.23948      0.44121  1.0000
  O3          0.90963      0.69034      0.11314  1.0000
  O2          0.78111      0.09342      0.77270  1.0000
  O2          0.68017      0.75547      0.93920  1.0000
  O2          0.10011      0.32578      0.60665  1.0000
  O2          0.23557      0.91686      0.27369  1.0000
  O2          0.57777      0.53983      0.98903  1.0000
  O2          0.44657      0.03909      0.32825  1.0000
  O2          0.97958      0.41406      0.66093  1.0000
  O2          0.42492      0.44859      0.49702  1.0000
  O2          0.57419      0.98139      0.82929  1.0000
  O2          0.02634      0.58619      0.16258  1.0000
  O2          0.56408      0.59967      0.34886  1.0000
  O2          0.03336      0.44470      0.01481  1.0000
  O2          0.41793      0.97302      0.68254  1.0000
  O3          0.45653      0.40994      0.83920  1.0000
  O2          0.98235      0.56382      0.51256  1.0000
  O2          0.59112      0.03463      0.18060  1.0000
  O2          0.58502      0.17398      0.25358  1.0000
  O2          0.84430      0.41986      0.58601  1.0000
  O2          0.57964      0.40630      0.91602  1.0000
  O2          0.42735      0.84099      0.75694  1.0000
  O2          0.16646      0.58448      0.09000  1.0000
  O2          0.42581      0.59230      0.42382  1.0000
  F           0.45479      0.91197      0.25388  1.0000
  F           0.10542      0.55228      0.58686  1.0000
  F           0.42627      0.51207      0.90907  1.0000
  F           0.56364      0.10332      0.75438  1.0000
  F           0.91017      0.49252      0.08264  1.0000
  F           0.55541      0.46033      0.42133  1.0000
