data_cif

_audit_creation_method             'generated by GULP'

_symmetry_space_group_name_H-M     'P 1'
_symmetry_Int_Tables_number        1
_symmetry_cell_setting             triclinic

_cell_length_a                       11.9934
_cell_length_b                       11.9768
_cell_length_c                       29.4212
_cell_angle_alpha                   90.4386
_cell_angle_beta                    90.4889
_cell_angle_gamma                  120.4137

loop_
_atom_site_label
_atom_site_fract_x
_atom_site_fract_y
_atom_site_fract_z
_atom_site_occupancy
  Si          0.69960      0.37570      0.03389  1.0000
  Si          0.62810      0.33138      0.36797  1.0000
  Si          0.68264      0.29800      0.70187  1.0000
  Si          0.29047      0.61927      0.53637  1.0000
  Si          0.37244      0.68113      0.86612  1.0000
  Si          0.32597      0.70581      0.20117  1.0000
  Si          0.38395      0.70929      0.30196  1.0000
  Si          0.31636      0.61667      0.96815  1.0000
  Si          0.29628      0.67628      0.63684  1.0000
  Si          0.63617      0.30332      0.80239  1.0000
  Si          0.68340      0.38044      0.47126  1.0000
  Si          0.70261      0.32450      0.13468  1.0000
  Si          0.52510      0.40847      0.96732  1.0000
  Si          0.58736      0.11876      0.30213  1.0000
  Si          0.88965      0.46741      0.63688  1.0000
  Si          0.47123      0.59471      0.47179  1.0000
  Si          0.42367      0.89918      0.80391  1.0000
  Si          0.11309      0.53210      0.13580  1.0000
  Si          0.42126      0.53870      0.36759  1.0000
  Si          0.10968      0.58024      0.03398  1.0000
  Si          0.47081      0.88899      0.70259  1.0000
  Si          0.58689      0.46704      0.86460  1.0000
  Si          0.88636      0.40847      0.53566  1.0000
  Si          0.53381      0.11681      0.20030  1.0000
  Ge          0.31346      0.41035      0.85858  1.0000
  Si          0.60427      0.90725      0.18657  1.0000
  Si          0.08816      0.69242      0.51979  1.0000
  Si          0.70624      0.61243      0.35077  1.0000
  Si          0.40115      0.09927      0.68831  1.0000
  Si          0.89928      0.29761      0.01928  1.0000
  Si          0.40224      0.30967      0.48567  1.0000
  Si          0.90539      0.60436      0.15010  1.0000
  Si          0.70839      0.10123      0.81743  1.0000
  Si          0.59795      0.69432      0.98321  1.0000
  Si          0.09833      0.39639      0.65204  1.0000
  Si          0.30604      0.90982      0.31648  1.0000
  Si          0.24134      0.32811      0.95416  1.0000
  Si          0.66580      0.91856      0.28744  1.0000
  Si          0.08738      0.74755      0.62098  1.0000
  Ge          0.73465      0.64733      0.45107  1.0000
  Si          0.34894      0.10167      0.78926  1.0000
  Si          0.91020      0.25166      0.12024  1.0000
  Si          0.34173      0.25729      0.38314  1.0000
  Si          0.90989      0.65800      0.04928  1.0000
  Si          0.75300      0.08850      0.71661  1.0000
  Si          0.65848      0.74881      0.88173  1.0000
  Si          0.08910      0.33555      0.55114  1.0000
  Si          0.25455      0.91494      0.21546  1.0000
  Si          0.96625      0.11591      0.97032  1.0000
  Si          0.88275      0.85604      0.30082  1.0000
  Si          0.15247      0.02919      0.63626  1.0000
  Si          0.02259      0.87379      0.46846  1.0000
  Si          0.12729      0.15882      0.80427  1.0000
  Si          0.84997      0.97269      0.13585  1.0000
  Si          0.12459      0.97267      0.36850  1.0000
  Si          0.84629      0.87383      0.03515  1.0000
  Si          0.03187      0.14930      0.70244  1.0000
  Si          0.88416      0.02849      0.86769  1.0000
  Si          0.15430      0.12104      0.53483  1.0000
  Si          0.97546      0.85497      0.20048  1.0000
  O2          0.92121      0.99338      0.00223  1.0000
  O2          0.00352      0.93110      0.33497  1.0000
  O2          0.07223      0.07123      0.66815  1.0000
  O2          0.08006      0.00065      0.50108  1.0000
  O2          0.00388      0.06558      0.83546  1.0000
  O2          0.93297      0.93373      0.16787  1.0000
  O2          0.34504      0.58675      0.33473  1.0000
  O2          0.41961      0.76206      0.67018  1.0000
  O2          0.23456      0.65586      0.00157  1.0000
  O2          0.67748      0.42811      0.83568  1.0000
  O2          0.58089      0.24078      0.16762  1.0000
  O2          0.75882      0.32828      0.50301  1.0000
  O2          0.57618      0.33618      0.00061  1.0000
  O2          0.76505      0.41986      0.66900  1.0000
  O2          0.66337      0.24529      0.33509  1.0000
  O2          0.41104      0.66213      0.50263  1.0000
  O2          0.23964      0.58120      0.16832  1.0000
  O2          0.34395      0.77890      0.83785  1.0000
  O2          0.11936      0.20920      0.97976  1.0000
  O2          0.79411      0.92158      0.30707  1.0000
  O2          0.08791      0.87439      0.64104  1.0000
  O3          0.87303      0.79278      0.47267  1.0000
  O2          0.22680      0.10440      0.81035  1.0000
  O2          0.91239      0.12738      0.14073  1.0000
  O2          0.21657      0.12859      0.36328  1.0000
  O2          0.91026      0.78424      0.02943  1.0000
  O2          0.87697      0.08593      0.69629  1.0000
  O2          0.78510      0.87384      0.86234  1.0000
  O2          0.08911      0.20993      0.53021  1.0000
  O2          0.12931      0.91609      0.19474  1.0000
  O2          0.93964      0.87446      0.25079  1.0000
  O2          0.14378      0.06902      0.58526  1.0000
  O2          0.93344      0.06281      0.91936  1.0000
  O2          0.07179      0.13356      0.75265  1.0000
  O2          0.86004      0.92891      0.08551  1.0000
  O2          0.07546      0.93216      0.41871  1.0000
  O2          0.89442      0.19665      0.98108  1.0000
  O2          0.79400      0.70224      0.30891  1.0000
  O2          0.30393      0.09909      0.64960  1.0000
  O2          0.08648      0.78538      0.48065  1.0000
  O3          0.19832      0.30591      0.81638  1.0000
  O2          0.69885      0.90287      0.14828  1.0000
  O2          0.20906      0.90716      0.35495  1.0000
  O2          0.69346      0.78819      0.02313  1.0000
  O2          0.10088      0.30171      0.69075  1.0000
  O2          0.80644      0.10223      0.85604  1.0000
  O2          0.30655      0.21050      0.52317  1.0000
  O2          0.90434      0.70199      0.18857  1.0000
  O2          0.32562      0.64973      0.25154  1.0000
  O2          0.35298      0.67691      0.58659  1.0000
  O2          0.31834      0.67278      0.91808  1.0000
  O2          0.68974      0.35976      0.75213  1.0000
  O2          0.64302      0.32047      0.08419  1.0000
  O2          0.68197      0.33188      0.41873  1.0000
  O2          0.36911      0.32270      0.97049  1.0000
  O2          0.67506      0.05099      0.30606  1.0000
  O2          0.95726      0.62402      0.63990  1.0000
  O3          0.62355      0.68528      0.47626  1.0000
  O2          0.33783      0.96830      0.80667  1.0000
  O2          0.04373      0.37558      0.13850  1.0000
  O2          0.33577      0.38140      0.36505  1.0000
  O2          0.04102      0.66732      0.03051  1.0000
  O2          0.62686      0.95585      0.69885  1.0000
  O2          0.66746      0.62504      0.86517  1.0000
  O2          0.95426      0.32086      0.53301  1.0000
  O2          0.37727      0.04752      0.19755  1.0000
  O2          0.76655      0.29990      0.01158  1.0000
  O2          0.70103      0.47413      0.34580  1.0000
  O2          0.53770      0.23045      0.68002  1.0000
  O2          0.22313      0.69414      0.51390  1.0000
  O3          0.29636      0.54372      0.84188  1.0000
  O2          0.46886      0.77282      0.17903  1.0000
  O2          0.30980      0.77800      0.32413  1.0000
  O2          0.46261      0.69039      0.98895  1.0000
  O2          0.23075      0.53378      0.65955  1.0000
  O2          0.71278      0.23740      0.82494  1.0000
  O2          0.53639      0.30980      0.49045  1.0000
  O2          0.77140      0.46920      0.15703  1.0000
  O2          0.78086      0.53242      0.02959  1.0000
  O2          0.47257      0.26606      0.36575  1.0000
  O2          0.75482      0.21474      0.69688  1.0000
  O2          0.21328      0.46216      0.53102  1.0000
  O2          0.52949      0.74422      0.86382  1.0000
  O2          0.25262      0.78788      0.19584  1.0000
  O2          0.54070      0.79157      0.30689  1.0000
  O2          0.24932      0.46145      0.97171  1.0000
  O2          0.21518      0.75096      0.64045  1.0000
  O2          0.48043      0.22463      0.80856  1.0000
  O3          0.76375      0.53367      0.47876  1.0000
  O2          0.78463      0.25107      0.13972  1.0000
  O3          0.21132      0.30093      0.90162  1.0000
  O2          0.68110      0.91504      0.23302  1.0000
  O2          0.08333      0.76212      0.56658  1.0000
  O3          0.78600      0.69491      0.39404  1.0000
  O2          0.33119      0.10182      0.73470  1.0000
  O2          0.90464      0.22936      0.06591  1.0000
  O2          0.33197      0.24822      0.43737  1.0000
  O2          0.91035      0.67816      0.10364  1.0000
  O2          0.77518      0.09235      0.77105  1.0000
  O2          0.66786      0.76140      0.93659  1.0000
  O2          0.09446      0.32079      0.60554  1.0000
  O2          0.23495      0.91210      0.26976  1.0000
  O2          0.57716      0.55198      0.98826  1.0000
  O2          0.44587      0.03781      0.32494  1.0000
  O2          0.97302      0.41018      0.66022  1.0000
  O2          0.42235      0.45162      0.49316  1.0000
  O2          0.56699      0.97857      0.82706  1.0000
  O2          0.03039      0.59002      0.15909  1.0000
  O2          0.56189      0.59154      0.34539  1.0000
  O2          0.02566      0.43744      0.01078  1.0000
  O2          0.41198      0.97185      0.68021  1.0000
  O3          0.45124      0.40761      0.83877  1.0000
  O2          0.96773      0.54793      0.51160  1.0000
  O2          0.59013      0.03211      0.17729  1.0000
  O2          0.58910      0.17206      0.25128  1.0000
  O2          0.83388      0.41090      0.58615  1.0000
  O2          0.57644      0.41191      0.91644  1.0000
  O2          0.42015      0.83911      0.75373  1.0000
  O2          0.16499      0.58407      0.08497  1.0000
  O2          0.42226      0.58872      0.41889  1.0000
  F           0.45714      0.91014      0.25162  1.0000
  F           0.09532      0.54306      0.58621  1.0000
  F           0.42093      0.51577      0.90740  1.0000
  F           0.55730      0.10132      0.75340  1.0000
  F           0.90293      0.45238      0.08430  1.0000
  F           0.58758      0.49758      0.42383  1.0000
