data_cif

_audit_creation_method             'generated by GULP'

_symmetry_space_group_name_H-M     'P 1'
_symmetry_Int_Tables_number        1
_symmetry_cell_setting             triclinic

_cell_length_a                       11.9562
_cell_length_b                       11.9444
_cell_length_c                       29.4166
_cell_angle_alpha                   89.7490
_cell_angle_beta                    90.6682
_cell_angle_gamma                  119.8397

loop_
_atom_site_label
_atom_site_fract_x
_atom_site_fract_y
_atom_site_fract_z
_atom_site_occupancy
  Si          0.69960      0.37570      0.03389  1.0000
  Si          0.62297      0.33701      0.36863  1.0000
  Si          0.68793      0.30912      0.70001  1.0000
  Si          0.30368      0.63338      0.53532  1.0000
  Si          0.37536      0.68629      0.86466  1.0000
  Si          0.33005      0.72085      0.20233  1.0000
  Si          0.38357      0.71727      0.30292  1.0000
  Si          0.31791      0.61861      0.96661  1.0000
  Si          0.30433      0.68691      0.63608  1.0000
  Si          0.63988      0.31025      0.80069  1.0000
  Si          0.68085      0.39124      0.46929  1.0000
  Si          0.69625      0.32477      0.13716  1.0000
  Si          0.52760      0.41267      0.96621  1.0000
  Si          0.58347      0.12686      0.30363  1.0000
  Si          0.89577      0.48215      0.63537  1.0000
  Si          0.47457      0.59576      0.47028  1.0000
  Si          0.42924      0.90671      0.80238  1.0000
  Si          0.12291      0.53694      0.13762  1.0000
  Si          0.41996      0.54333      0.36843  1.0000
  Si          0.11320      0.58138      0.03345  1.0000
  Si          0.47747      0.89866      0.70108  1.0000
  Si          0.58988      0.47179      0.86348  1.0000
  Si          0.89393      0.42980      0.53371  1.0000
  Si          0.52452      0.12551      0.20222  1.0000
  Ge          0.31613      0.41556      0.85746  1.0000
  Si          0.60562      0.92328      0.18630  1.0000
  Si          0.10204      0.71041      0.51980  1.0000
  Si          0.70016      0.61534      0.35419  1.0000
  Si          0.40781      0.11061      0.68647  1.0000
  Si          0.90144      0.29570      0.01659  1.0000
  Si          0.40335      0.31445      0.48418  1.0000
  Si          0.90733      0.60646      0.15175  1.0000
  Si          0.71249      0.10682      0.81605  1.0000
  Si          0.60064      0.69823      0.98182  1.0000
  Si          0.10400      0.40837      0.65066  1.0000
  Si          0.30409      0.91669      0.31795  1.0000
  Si          0.24316      0.33056      0.95313  1.0000
  Si          0.66371      0.92752      0.28751  1.0000
  Si          0.09598      0.76068      0.62060  1.0000
  Si          0.75291      0.67295      0.45505  1.0000
  Si          0.35432      0.11043      0.78737  1.0000
  Ge          0.91149      0.27244      0.11699  1.0000
  Si          0.34209      0.26406      0.38328  1.0000
  Si          0.91227      0.66224      0.04931  1.0000
  Si          0.75780      0.09775      0.71519  1.0000
  Si          0.66151      0.75329      0.88026  1.0000
  Si          0.09562      0.35234      0.54959  1.0000
  Si          0.24864      0.92246      0.21733  1.0000
  Si          0.96886      0.11779      0.96815  1.0000
  Si          0.87952      0.86138      0.30237  1.0000
  Si          0.15830      0.04074      0.63555  1.0000
  Si          0.03298      0.89067      0.46901  1.0000
  Si          0.13116      0.16633      0.80335  1.0000
  Si          0.85121      0.98612      0.13494  1.0000
  Si          0.12407      0.98387      0.36799  1.0000
  Si          0.84465      0.87828      0.03530  1.0000
  Si          0.03696      0.15989      0.70147  1.0000
  Si          0.88776      0.03098      0.86625  1.0000
  Si          0.15693      0.13405      0.53439  1.0000
  Si          0.96762      0.85602      0.20102  1.0000
  O2          0.92056      0.99698      0.00171  1.0000
  O2          0.00417      0.94255      0.33396  1.0000
  O2          0.07903      0.08199      0.66812  1.0000
  O2          0.07700      0.01350      0.50119  1.0000
  O2          0.00810      0.06988      0.83410  1.0000
  O2          0.92130      0.93003      0.16763  1.0000
  O2          0.34450      0.59394      0.33561  1.0000
  O2          0.42725      0.77186      0.66922  1.0000
  O2          0.23624      0.65736      0.00039  1.0000
  O2          0.68037      0.43309      0.83431  1.0000
  O2          0.57022      0.25088      0.16937  1.0000
  O2          0.76728      0.35244      0.50143  1.0000
  O2          0.57871      0.34049      0.00028  1.0000
  O2          0.77029      0.43217      0.66733  1.0000
  O2          0.66125      0.25254      0.33593  1.0000
  O2          0.42651      0.67233      0.50284  1.0000
  O2          0.25196      0.59919      0.16842  1.0000
  O2          0.34812      0.78597      0.83626  1.0000
  O2          0.12182      0.20943      0.97807  1.0000
  O2          0.79087      0.92751      0.30747  1.0000
  O2          0.09594      0.88657      0.64092  1.0000
  O2          0.87929      0.79956      0.47519  1.0000
  O2          0.23228      0.11281      0.80880  1.0000
  O3          0.92020      0.13566      0.13864  1.0000
  O2          0.21469      0.13832      0.36316  1.0000
  O2          0.90861      0.78665      0.02973  1.0000
  O2          0.88258      0.09652      0.69484  1.0000
  O2          0.78799      0.87731      0.86047  1.0000
  O2          0.09429      0.22587      0.52903  1.0000
  O2          0.12197      0.92139      0.19654  1.0000
  O2          0.92631      0.86729      0.25139  1.0000
  O2          0.14365      0.07969      0.58479  1.0000
  O2          0.93773      0.06059      0.91785  1.0000
  O2          0.07580      0.14412      0.75193  1.0000
  O2          0.85390      0.92875      0.08551  1.0000
  O2          0.06858      0.94215      0.41807  1.0000
  O2          0.90032      0.20426      0.97520  1.0000
  O2          0.79719      0.71094      0.31569  1.0000
  O2          0.31027      0.11092      0.64767  1.0000
  O2          0.10336      0.80871      0.48109  1.0000
  O3          0.20042      0.31238      0.81583  1.0000
  O2          0.69910      0.92343      0.14714  1.0000
  O2          0.20745      0.91517      0.35665  1.0000
  O2          0.69341      0.79133      0.02172  1.0000
  O2          0.10561      0.31194      0.68933  1.0000
  O2          0.81004      0.10613      0.85482  1.0000
  O2          0.30839      0.21611      0.52261  1.0000
  O2          0.90455      0.70366      0.18910  1.0000
  O2          0.32649      0.66022      0.25243  1.0000
  O2          0.36181      0.68892      0.58586  1.0000
  O2          0.32004      0.67660      0.91657  1.0000
  O2          0.69347      0.36827      0.75041  1.0000
  O2          0.64678      0.32333      0.08457  1.0000
  O2          0.68066      0.33505      0.41888  1.0000
  O2          0.37239      0.32736      0.96996  1.0000
  O2          0.67173      0.05844      0.30659  1.0000
  O2          0.96384      0.63837      0.63869  1.0000
  O2          0.63086      0.68319      0.47326  1.0000
  O2          0.34342      0.97660      0.80489  1.0000
  O3          0.06156      0.38519      0.14217  1.0000
  O2          0.33182      0.38709      0.36507  1.0000
  O2          0.04085      0.66602      0.03086  1.0000
  O2          0.63334      0.96598      0.69726  1.0000
  O2          0.67067      0.62913      0.86437  1.0000
  O2          0.96291      0.34228      0.53084  1.0000
  O2          0.36844      0.05683      0.19948  1.0000
  O2          0.76887      0.30235      0.01173  1.0000
  O2          0.69836      0.48035      0.34634  1.0000
  O2          0.54342      0.24175      0.67815  1.0000
  O2          0.23563      0.70936      0.51271  1.0000
  O3          0.29954      0.55006      0.84054  1.0000
  O2          0.47210      0.78816      0.18005  1.0000
  O2          0.30824      0.78462      0.32566  1.0000
  O2          0.46338      0.69093      0.98735  1.0000
  O2          0.23737      0.54335      0.65822  1.0000
  O2          0.71625      0.24283      0.82332  1.0000
  O2          0.53825      0.31545      0.49162  1.0000
  O2          0.77299      0.47251      0.15624  1.0000
  O2          0.78812      0.53120      0.03217  1.0000
  O2          0.46677      0.26287      0.36348  1.0000
  O2          0.76000      0.22506      0.69536  1.0000
  O2          0.22190      0.47731      0.53020  1.0000
  O2          0.53209      0.74856      0.86226  1.0000
  O2          0.25002      0.79768      0.19701  1.0000
  O2          0.53985      0.79988      0.30678  1.0000
  O2          0.24958      0.46335      0.97042  1.0000
  O2          0.22245      0.76131      0.64054  1.0000
  O2          0.48456      0.23241      0.80667  1.0000
  O2          0.75443      0.54735      0.47456  1.0000
  O3          0.76948      0.24501      0.14463  1.0000
  O3          0.21492      0.30535      0.90056  1.0000
  O2          0.68137      0.92980      0.23314  1.0000
  O2          0.09731      0.78045      0.56616  1.0000
  O2          0.77140      0.69011      0.40065  1.0000
  O2          0.33713      0.11241      0.73279  1.0000
  O3          0.90498      0.21848      0.06014  1.0000
  O2          0.32702      0.24459      0.43767  1.0000
  O2          0.91556      0.67493      0.10352  1.0000
  O2          0.77955      0.09901      0.76963  1.0000
  O2          0.67003      0.76611      0.93508  1.0000
  O2          0.09901      0.33451      0.60398  1.0000
  O2          0.22991      0.91880      0.27172  1.0000
  O2          0.58272      0.55633      0.98668  1.0000
  O2          0.44291      0.04314      0.32663  1.0000
  O2          0.97940      0.42404      0.65885  1.0000
  O2          0.41805      0.45423      0.49315  1.0000
  O2          0.57170      0.98451      0.82573  1.0000
  O2          0.02947      0.58656      0.15926  1.0000
  O2          0.56058      0.60152      0.34532  1.0000
  O2          0.02572      0.43964      0.01130  1.0000
  O2          0.41907      0.98306      0.67852  1.0000
  O3          0.45471      0.41398      0.83767  1.0000
  O2          0.97690      0.57097      0.51047  1.0000
  O2          0.58210      0.04349      0.17822  1.0000
  O2          0.58111      0.17996      0.25280  1.0000
  O2          0.84152      0.42967      0.58443  1.0000
  O2          0.57868      0.41475      0.91540  1.0000
  O2          0.42704      0.84805      0.75231  1.0000
  O2          0.16457      0.58364      0.08473  1.0000
  O2          0.42028      0.59611      0.41932  1.0000
  F           0.45064      0.91819      0.25255  1.0000
  F           0.10260      0.56001      0.58485  1.0000
  F           0.42277      0.51950      0.90639  1.0000
  F           0.56235      0.10964      0.75180  1.0000
  F           0.90807      0.41874      0.08974  1.0000
  F           0.55132      0.46489      0.41887  1.0000
