data_cif

_audit_creation_method             'generated by GULP'

_symmetry_space_group_name_H-M     'P 1'
_symmetry_Int_Tables_number        1
_symmetry_cell_setting             triclinic

_cell_length_a                       11.9552
_cell_length_b                       11.9461
_cell_length_c                       29.4137
_cell_angle_alpha                   90.5236
_cell_angle_beta                    90.0904
_cell_angle_gamma                  119.8388

loop_
_atom_site_label
_atom_site_fract_x
_atom_site_fract_y
_atom_site_fract_z
_atom_site_occupancy
  Si          0.69960      0.37570      0.03389  1.0000
  Si          0.62021      0.33283      0.36666  1.0000
  Si          0.67697      0.29021      0.70090  1.0000
  Si          0.30330      0.63267      0.53655  1.0000
  Si          0.37275      0.68216      0.86797  1.0000
  Si          0.31924      0.70270      0.20252  1.0000
  Si          0.37797      0.71034      0.30335  1.0000
  Si          0.31664      0.61532      0.96985  1.0000
  Si          0.30373      0.68294      0.63983  1.0000
  Si          0.63424      0.30306      0.80133  1.0000
  Si          0.67895      0.38768      0.46742  1.0000
  Si          0.69627      0.32184      0.13474  1.0000
  Si          0.52671      0.40876      0.96681  1.0000
  Si          0.58043      0.12071      0.30132  1.0000
  Si          0.88030      0.47150      0.63627  1.0000
  Si          0.47341      0.59127      0.47082  1.0000
  Si          0.42633      0.90046      0.80600  1.0000
  Si          0.10773      0.52712      0.13782  1.0000
  Si          0.41732      0.54069      0.36901  1.0000
  Si          0.10892      0.57737      0.03597  1.0000
  Si          0.47664      0.88594      0.70515  1.0000
  Si          0.58757      0.46929      0.86404  1.0000
  Si          0.88947      0.42500      0.53232  1.0000
  Si          0.52419      0.11360      0.19948  1.0000
  Ge          0.31352      0.41166      0.85919  1.0000
  Si          0.59580      0.90337      0.18648  1.0000
  Si          0.10082      0.71059      0.51721  1.0000
  Si          0.69725      0.61146      0.35368  1.0000
  Si          0.39770      0.08986      0.68762  1.0000
  Si          0.90056      0.29679      0.02040  1.0000
  Si          0.40107      0.30988      0.48374  1.0000
  Si          0.89820      0.59946      0.15109  1.0000
  Si          0.70919      0.10281      0.81841  1.0000
  Si          0.59883      0.69407      0.98363  1.0000
  Si          0.09447      0.40042      0.65236  1.0000
  Si          0.30070      0.91276      0.31679  1.0000
  Si          0.24263      0.32754      0.95486  1.0000
  Si          0.65787      0.91830      0.28721  1.0000
  Ge          0.09003      0.73656      0.61750  1.0000
  Si          0.75187      0.66951      0.45460  1.0000
  Si          0.34845      0.10078      0.78882  1.0000
  Si          0.90571      0.24867      0.12144  1.0000
  Si          0.33992      0.26144      0.38273  1.0000
  Si          0.90791      0.65582      0.05040  1.0000
  Si          0.75560      0.08711      0.71784  1.0000
  Si          0.65960      0.75061      0.88214  1.0000
  Si          0.09074      0.34520      0.54972  1.0000
  Si          0.24680      0.91269      0.21585  1.0000
  Si          0.96842      0.11499      0.97074  1.0000
  Si          0.87644      0.85721      0.30241  1.0000
  Si          0.14985      0.02304      0.63539  1.0000
  Si          0.03215      0.88710      0.46779  1.0000
  Si          0.12822      0.16191      0.80460  1.0000
  Si          0.84286      0.96879      0.13639  1.0000
  Si          0.12106      0.98250      0.36736  1.0000
  Si          0.84547      0.87300      0.03559  1.0000
  Si          0.03506      0.15232      0.70231  1.0000
  Si          0.88486      0.02974      0.86824  1.0000
  Si          0.15723      0.12819      0.53541  1.0000
  Si          0.96610      0.84903      0.20145  1.0000
  O2          0.92200      0.99193      0.00255  1.0000
  O2          0.99962      0.93996      0.33433  1.0000
  O2          0.08069      0.07882      0.66831  1.0000
  O2          0.07781      0.00752      0.50180  1.0000
  O2          0.00391      0.06726      0.83523  1.0000
  O2          0.92306      0.92755      0.16891  1.0000
  O2          0.34023      0.59005      0.33700  1.0000
  O2          0.42838      0.75743      0.67342  1.0000
  O2          0.23478      0.65383      0.00400  1.0000
  O2          0.67617      0.42893      0.83396  1.0000
  O2          0.57190      0.23720      0.16653  1.0000
  O2          0.76539      0.34852      0.49902  1.0000
  O2          0.57864      0.33648      0.99980  1.0000
  O2          0.75088      0.40814      0.66605  1.0000
  O2          0.65803      0.24843      0.33315  1.0000
  O2          0.42591      0.66750      0.50451  1.0000
  O2          0.23304      0.57656      0.17065  1.0000
  O2          0.34531      0.78209      0.84045  1.0000
  O2          0.12116      0.20702      0.97998  1.0000
  O2          0.78573      0.92120      0.30731  1.0000
  O3          0.08095      0.87335      0.63868  1.0000
  O2          0.87813      0.79653      0.47455  1.0000
  O2          0.22708      0.10588      0.81016  1.0000
  O2          0.90541      0.12301      0.14202  1.0000
  O2          0.21232      0.13659      0.36216  1.0000
  O2          0.90991      0.78294      0.03043  1.0000
  O2          0.88008      0.08553      0.69699  1.0000
  O2          0.78571      0.87567      0.86283  1.0000
  O2          0.09519      0.22157      0.52949  1.0000
  O2          0.11988      0.91138      0.19557  1.0000
  O2          0.92795      0.86542      0.25192  1.0000
  O2          0.14617      0.07863      0.58578  1.0000
  O2          0.93554      0.06267      0.91971  1.0000
  O2          0.07673      0.14192      0.75275  1.0000
  O2          0.85674      0.92805      0.08586  1.0000
  O2          0.06646      0.94398      0.41760  1.0000
  O2          0.89714      0.19684      0.98197  1.0000
  O2          0.79439      0.70672      0.31525  1.0000
  O2          0.30220      0.08582      0.64807  1.0000
  O2          0.09989      0.80053      0.47561  1.0000
  O3          0.19812      0.30805      0.81748  1.0000
  O2          0.69118      0.89920      0.14799  1.0000
  O2          0.20389      0.91317      0.35534  1.0000
  O2          0.69351      0.78771      0.02332  1.0000
  O2          0.09650      0.30416      0.68999  1.0000
  O2          0.80678      0.10437      0.85732  1.0000
  O2          0.30799      0.21181      0.52228  1.0000
  O2          0.89606      0.69665      0.18965  1.0000
  O2          0.32035      0.64903      0.25319  1.0000
  O2          0.35480      0.68519      0.58770  1.0000
  O2          0.31769      0.67229      0.92000  1.0000
  O2          0.68731      0.35634      0.75067  1.0000
  O2          0.64034      0.32019      0.08395  1.0000
  O2          0.67783      0.33087      0.41674  1.0000
  O2          0.37127      0.32247      0.97046  1.0000
  O2          0.66827      0.05214      0.30479  1.0000
  O3          0.94030      0.62305      0.64163  1.0000
  O2          0.62950      0.67841      0.47399  1.0000
  O2          0.34016      0.97015      0.80800  1.0000
  O2          0.03818      0.37080      0.14037  1.0000
  O2          0.32933      0.38449      0.36563  1.0000
  O2          0.04005      0.66489      0.03230  1.0000
  O2          0.63228      0.95241      0.70133  1.0000
  O2          0.66871      0.62672      0.86499  1.0000
  O2          0.96122      0.33975      0.53056  1.0000
  O2          0.36781      0.04403      0.19670  1.0000
  O2          0.76838      0.30010      0.01212  1.0000
  O2          0.69530      0.47642      0.34514  1.0000
  O2          0.53258      0.22169      0.67981  1.0000
  O2          0.23499      0.70664      0.51357  1.0000
  O3          0.29680      0.54617      0.84320  1.0000
  O2          0.46145      0.76900      0.17958  1.0000
  O2          0.30301      0.78012      0.32500  1.0000
  O2          0.46276      0.68925      0.98998  1.0000
  O2          0.22818      0.53516      0.65802  1.0000
  O2          0.71094      0.23815      0.82507  1.0000
  O2          0.53707      0.31293      0.49037  1.0000
  O2          0.76392      0.46548      0.15754  1.0000
  O2          0.78043      0.53201      0.02999  1.0000
  O2          0.46415      0.26006      0.36208  1.0000
  O2          0.75425      0.21070      0.69650  1.0000
  O2          0.21345      0.47745      0.53363  1.0000
  O2          0.52963      0.74536      0.86506  1.0000
  O2          0.24477      0.78444      0.19700  1.0000
  O2          0.53411      0.79317      0.30763  1.0000
  O2          0.25015      0.46031      0.97325  1.0000
  O3          0.23077      0.76316      0.64659  1.0000
  O2          0.47870      0.22556      0.80680  1.0000
  O2          0.75423      0.54391      0.47314  1.0000
  O2          0.77891      0.24839      0.14021  1.0000
  O3          0.21266      0.30220      0.90233  1.0000
  O2          0.67293      0.91167      0.23282  1.0000
  O3          0.09552      0.78834      0.56041  1.0000
  O2          0.76874      0.68649      0.40017  1.0000
  O2          0.32799      0.09360      0.73431  1.0000
  O2          0.90398      0.22771      0.06708  1.0000
  O2          0.32538      0.24039      0.43703  1.0000
  O2          0.90483      0.67458      0.10475  1.0000
  O2          0.77862      0.09421      0.77228  1.0000
  O2          0.66873      0.76179      0.93701  1.0000
  O2          0.08781      0.33251      0.60393  1.0000
  O2          0.22912      0.91441      0.27024  1.0000
  O2          0.57856      0.55164      0.98808  1.0000
  O2          0.44024      0.03879      0.32491  1.0000
  O2          0.97248      0.42090      0.65855  1.0000
  O2          0.41377      0.44925      0.49311  1.0000
  O2          0.56918      0.98013      0.82874  1.0000
  O2          0.02287      0.58437      0.16064  1.0000
  O2          0.55761      0.59788      0.34544  1.0000
  O2          0.02699      0.43573      0.01236  1.0000
  O2          0.41718      0.96657      0.68136  1.0000
  O3          0.45210      0.41069      0.83862  1.0000
  O2          0.97827      0.56607      0.51050  1.0000
  O2          0.58101      0.02805      0.17674  1.0000
  O2          0.57870      0.17035      0.25016  1.0000
  O2          0.83861      0.42485      0.58321  1.0000
  O2          0.57788      0.41286      0.91566  1.0000
  O2          0.42451      0.83798      0.75636  1.0000
  O2          0.16169      0.57926      0.08711  1.0000
  O2          0.41902      0.59386      0.42029  1.0000
  F           0.44906      0.90859      0.25136  1.0000
  F           0.09439      0.58999      0.59022  1.0000
  F           0.42097      0.51610      0.90810  1.0000
  F           0.56008      0.09918      0.75419  1.0000
  F           0.90017      0.45015      0.08534  1.0000
  F           0.54917      0.46224      0.41882  1.0000
