data_cif

_audit_creation_method             'generated by GULP'

_symmetry_space_group_name_H-M     'P 1'
_symmetry_Int_Tables_number        1
_symmetry_cell_setting             triclinic

_cell_length_a                       11.9195
_cell_length_b                       11.9748
_cell_length_c                       29.4221
_cell_angle_alpha                   90.4581
_cell_angle_beta                    89.9385
_cell_angle_gamma                  119.8195

loop_
_atom_site_label
_atom_site_fract_x
_atom_site_fract_y
_atom_site_fract_z
_atom_site_occupancy
  Si          0.69960      0.37570      0.03389  1.0000
  Si          0.61495      0.32877      0.36615  1.0000
  Si          0.68354      0.30607      0.69716  1.0000
  Si          0.29277      0.62330      0.53558  1.0000
  Si          0.37387      0.68389      0.86738  1.0000
  Si          0.31676      0.70096      0.20222  1.0000
  Si          0.37373      0.70640      0.30308  1.0000
  Si          0.31709      0.61655      0.96933  1.0000
  Si          0.28424      0.67339      0.63603  1.0000
  Si          0.64071      0.30931      0.80041  1.0000
  Si          0.67267      0.38304      0.46677  1.0000
  Si          0.69432      0.32060      0.13464  1.0000
  Si          0.52883      0.41114      0.96662  1.0000
  Si          0.57718      0.11752      0.30116  1.0000
  Si          0.88149      0.47918      0.63235  1.0000
  Si          0.46613      0.58670      0.47018  1.0000
  Si          0.42385      0.90048      0.80484  1.0000
  Si          0.10613      0.52566      0.13752  1.0000
  Si          0.41100      0.53497      0.36836  1.0000
  Si          0.10821      0.57654      0.03572  1.0000
  Si          0.46542      0.88106      0.70127  1.0000
  Si          0.58899      0.47163      0.86383  1.0000
  Si          0.88456      0.42326      0.53119  1.0000
  Si          0.52195      0.11165      0.19934  1.0000
  Ge          0.31416      0.41350      0.85868  1.0000
  Si          0.59341      0.90210      0.18644  1.0000
  Si          0.09416      0.70268      0.51850  1.0000
  Si          0.69158      0.60613      0.35309  1.0000
  Si          0.39886      0.09855      0.68573  1.0000
  Si          0.90058      0.29669      0.02028  1.0000
  Si          0.39416      0.30571      0.48303  1.0000
  Si          0.89577      0.59821      0.15105  1.0000
  Si          0.71343      0.10444      0.81965  1.0000
  Si          0.60002      0.69541      0.98329  1.0000
  Si          0.08232      0.39602      0.65066  1.0000
  Si          0.29657      0.90887      0.31662  1.0000
  Si          0.24371      0.32951      0.95453  1.0000
  Si          0.65457      0.91522      0.28704  1.0000
  Si          0.08323      0.75592      0.61895  1.0000
  Si          0.74564      0.66459      0.45385  1.0000
  Si          0.34814      0.10438      0.78799  1.0000
  Si          0.90469      0.24739      0.12127  1.0000
  Si          0.33384      0.25679      0.38211  1.0000
  Si          0.90692      0.65501      0.05028  1.0000
  Ge          0.73306      0.09028      0.71932  1.0000
  Si          0.66115      0.75241      0.88167  1.0000
  Si          0.08314      0.34285      0.54918  1.0000
  Si          0.24433      0.91016      0.21570  1.0000
  Si          0.97011      0.11549      0.97149  1.0000
  Si          0.87236      0.85258      0.30275  1.0000
  Si          0.14883      0.03614      0.63608  1.0000
  Si          0.02637      0.88290      0.46909  1.0000
  Si          0.12651      0.16669      0.80381  1.0000
  Si          0.84157      0.96776      0.13663  1.0000
  Si          0.11645      0.97726      0.36811  1.0000
  Si          0.84615      0.87310      0.03593  1.0000
  Si          0.01915      0.15053      0.70309  1.0000
  Si          0.88583      0.03127      0.86957  1.0000
  Si          0.14807      0.12661      0.53468  1.0000
  Si          0.96346      0.84682      0.20171  1.0000
  O2          0.92524      0.99408      0.00391  1.0000
  O2          0.99316      0.93291      0.33583  1.0000
  O2          0.07523      0.08126      0.66989  1.0000
  O2          0.06724      0.00241      0.50293  1.0000
  O2          0.00538      0.07321      0.83610  1.0000
  O2          0.92055      0.92641      0.16968  1.0000
  O2          0.33468      0.58542      0.33632  1.0000
  O2          0.40248      0.75073      0.67125  1.0000
  O2          0.23441      0.65391      0.00354  1.0000
  O2          0.67848      0.43226      0.83336  1.0000
  O2          0.56963      0.23545      0.16643  1.0000
  O2          0.75967      0.34497      0.49827  1.0000
  O2          0.57921      0.33760      0.99948  1.0000
  O2          0.75427      0.43068      0.66422  1.0000
  O2          0.65395      0.24475      0.33284  1.0000
  O2          0.41785      0.66225      0.50358  1.0000
  O2          0.23136      0.57524      0.17029  1.0000
  O2          0.34491      0.78279      0.83959  1.0000
  O2          0.12323      0.20916      0.98012  1.0000
  O2          0.78220      0.91747      0.30719  1.0000
  O2          0.08279      0.88154      0.63951  1.0000
  O2          0.87187      0.79084      0.47411  1.0000
  O2          0.22910      0.11331      0.80922  1.0000
  O2          0.90460      0.12188      0.14163  1.0000
  O2          0.20611      0.13093      0.36213  1.0000
  O2          0.90941      0.78215      0.03027  1.0000
  O3          0.86921      0.08162      0.69771  1.0000
  O2          0.78835      0.87731      0.86276  1.0000
  O2          0.08419      0.21698      0.52872  1.0000
  O2          0.11733      0.90876      0.19519  1.0000
  O2          0.92691      0.86271      0.25248  1.0000
  O2          0.13886      0.07961      0.58574  1.0000
  O2          0.93786      0.06022      0.92086  1.0000
  O2          0.07252      0.14554      0.75276  1.0000
  O2          0.85608      0.92548      0.08640  1.0000
  O2          0.06560      0.93898      0.41887  1.0000
  O2          0.89782      0.19679      0.98202  1.0000
  O2          0.78894      0.70189      0.31458  1.0000
  O2          0.30129      0.09852      0.64771  1.0000
  O2          0.09692      0.80078      0.47984  1.0000
  O3          0.19890      0.31248      0.81690  1.0000
  O2          0.68937      0.89878      0.14777  1.0000
  O2          0.19961      0.90864      0.35536  1.0000
  O2          0.69429      0.78955      0.02275  1.0000
  O2          0.08096      0.30243      0.68992  1.0000
  O2          0.80248      0.10249      0.86156  1.0000
  O2          0.29932      0.20763      0.52143  1.0000
  O2          0.89288      0.69492      0.18946  1.0000
  O2          0.31730      0.64664      0.25274  1.0000
  O2          0.34797      0.67951      0.58625  1.0000
  O2          0.31782      0.67309      0.91933  1.0000
  O2          0.69030      0.35927      0.74936  1.0000
  O2          0.63886      0.31928      0.08376  1.0000
  O2          0.67287      0.32712      0.41607  1.0000
  O2          0.37298      0.32459      0.96950  1.0000
  O2          0.66507      0.04882      0.30445  1.0000
  O2          0.94810      0.63470      0.63552  1.0000
  O2          0.62277      0.67431      0.47251  1.0000
  O2          0.34045      0.97334      0.80588  1.0000
  O2          0.03706      0.36973      0.13998  1.0000
  O2          0.32301      0.37909      0.36439  1.0000
  O2          0.03936      0.66402      0.03198  1.0000
  O3          0.61688      0.94010      0.69542  1.0000
  O2          0.66873      0.62851      0.86371  1.0000
  O2          0.95335      0.33540      0.52871  1.0000
  O2          0.36516      0.04164      0.19641  1.0000
  O2          0.76815      0.30009      0.01178  1.0000
  O2          0.69000      0.47172      0.34412  1.0000
  O2          0.53447      0.22971      0.67908  1.0000
  O2          0.22728      0.69942      0.51168  1.0000
  O3          0.29947      0.54897      0.84235  1.0000
  O2          0.45937      0.76786      0.17910  1.0000
  O2          0.29849      0.77625      0.32447  1.0000
  O2          0.46358      0.69098      0.98919  1.0000
  O2          0.21679      0.53022      0.65713  1.0000
  O2          0.71516      0.24121      0.82299  1.0000
  O2          0.52964      0.30687      0.48935  1.0000
  O2          0.76142      0.46397      0.15719  1.0000
  O2          0.77935      0.53172      0.02980  1.0000
  O2          0.45827      0.25458      0.36144  1.0000
  O3          0.76112      0.23073      0.69001  1.0000
  O2          0.21216      0.46733      0.53093  1.0000
  O2          0.53158      0.74931      0.86466  1.0000
  O2          0.24154      0.78199      0.19667  1.0000
  O2          0.53011      0.79019      0.30728  1.0000
  O2          0.25166      0.46213      0.97269  1.0000
  O2          0.20618      0.75233      0.64014  1.0000
  O2          0.48552      0.22184      0.80383  1.0000
  O2          0.74612      0.53868      0.47248  1.0000
  O2          0.77776      0.24788      0.13996  1.0000
  O3          0.21317      0.30500      0.90203  1.0000
  O2          0.67059      0.90947      0.23262  1.0000
  O2          0.08940      0.77563      0.56450  1.0000
  O2          0.76379      0.68119      0.39940  1.0000
  O2          0.33352      0.09947      0.73362  1.0000
  O2          0.90359      0.22731      0.06690  1.0000
  O2          0.31819      0.23689      0.43642  1.0000
  O2          0.90300      0.67305      0.10458  1.0000
  O3          0.78729      0.09470      0.77630  1.0000
  O2          0.67016      0.76171      0.93645  1.0000
  O2          0.07807      0.32300      0.60345  1.0000
  O2          0.22553      0.91121      0.27004  1.0000
  O2          0.57922      0.55314      0.98799  1.0000
  O2          0.43640      0.03436      0.32456  1.0000
  O2          0.96260      0.42134      0.65707  1.0000
  O2          0.40988      0.44547      0.49244  1.0000
  O2          0.56704      0.98558      0.82648  1.0000
  O2          0.02023      0.58208      0.16022  1.0000
  O2          0.55198      0.59343      0.34468  1.0000
  O2          0.02739      0.43537      0.01198  1.0000
  O2          0.41413      0.97332      0.67985  1.0000
  O3          0.45278      0.40912      0.83861  1.0000
  O2          0.96827      0.56426      0.50838  1.0000
  O2          0.57979      0.02717      0.17646  1.0000
  O2          0.57587      0.16752      0.24999  1.0000
  O2          0.82878      0.42415      0.58150  1.0000
  O2          0.58208      0.41710      0.91548  1.0000
  O2          0.42126      0.84331      0.75447  1.0000
  O2          0.16075      0.57804      0.08676  1.0000
  O2          0.41116      0.58703      0.41953  1.0000
  F           0.44612      0.90608      0.25033  1.0000
  F           0.08984      0.55459      0.58279  1.0000
  F           0.42309      0.51837      0.90697  1.0000
  F           0.59038      0.09899      0.74680  1.0000
  F           0.89870      0.44904      0.08436  1.0000
  F           0.54288      0.45642      0.41690  1.0000
