data_cif

_audit_creation_method             'generated by GULP'

_symmetry_space_group_name_H-M     'P 1'
_symmetry_Int_Tables_number        1
_symmetry_cell_setting             triclinic

_cell_length_a                       11.9591
_cell_length_b                       12.0005
_cell_length_c                       29.3816
_cell_angle_alpha                   90.0662
_cell_angle_beta                    90.3663
_cell_angle_gamma                  120.0959

loop_
_atom_site_label
_atom_site_fract_x
_atom_site_fract_y
_atom_site_fract_z
_atom_site_occupancy
  Si          0.69960      0.37570      0.03389  1.0000
  Si          0.61811      0.32562      0.36701  1.0000
  Si          0.68368      0.30036      0.70073  1.0000
  Si          0.30485      0.63078      0.53601  1.0000
  Si          0.37313      0.68411      0.86663  1.0000
  Si          0.32017      0.70069      0.20205  1.0000
  Si          0.37756      0.70391      0.30315  1.0000
  Si          0.31617      0.61602      0.96880  1.0000
  Si          0.30180      0.67874      0.63739  1.0000
  Si          0.63634      0.30640      0.80152  1.0000
  Si          0.68102      0.38328      0.46741  1.0000
  Si          0.69774      0.32050      0.13476  1.0000
  Si          0.52654      0.41008      0.96695  1.0000
  Si          0.58174      0.11545      0.30164  1.0000
  Si          0.89199      0.47205      0.63545  1.0000
  Si          0.47247      0.58835      0.47055  1.0000
  Si          0.42433      0.90265      0.80431  1.0000
  Si          0.10859      0.52640      0.13709  1.0000
  Si          0.41431      0.53169      0.36876  1.0000
  Si          0.10851      0.57754      0.03507  1.0000
  Si          0.47242      0.89093      0.70288  1.0000
  Si          0.58900      0.47115      0.86396  1.0000
  Si          0.89210      0.42576      0.53336  1.0000
  Si          0.52620      0.11085      0.19960  1.0000
  Ge          0.31529      0.41490      0.85887  1.0000
  Si          0.59726      0.90205      0.18659  1.0000
  Si          0.10248      0.70623      0.52151  1.0000
  Si          0.69399      0.60324      0.35250  1.0000
  Si          0.40322      0.10132      0.68769  1.0000
  Si          0.89974      0.29724      0.02010  1.0000
  Si          0.40499      0.30922      0.48493  1.0000
  Si          0.89940      0.59836      0.15073  1.0000
  Si          0.70845      0.10381      0.81756  1.0000
  Si          0.59855      0.69420      0.98329  1.0000
  Si          0.10113      0.39880      0.65007  1.0000
  Si          0.30133      0.90601      0.31633  1.0000
  Si          0.24190      0.32888      0.95443  1.0000
  Si          0.65861      0.91378      0.28748  1.0000
  Si          0.09314      0.75143      0.62280  1.0000
  Si          0.74962      0.66237      0.45323  1.0000
  Si          0.34976      0.10521      0.78867  1.0000
  Si          0.90678      0.24763      0.12120  1.0000
  Si          0.33764      0.25392      0.38447  1.0000
  Si          0.90808      0.65574      0.04980  1.0000
  Si          0.75333      0.09090      0.71666  1.0000
  Si          0.65979      0.75125      0.88159  1.0000
  Si          0.09469      0.35048      0.54831  1.0000
  Si          0.24794      0.90917      0.21537  1.0000
  Si          0.96686      0.11599      0.97103  1.0000
  Si          0.87592      0.85066      0.30226  1.0000
  Si          0.15149      0.02850      0.63844  1.0000
  Si          0.02991      0.87977      0.46874  1.0000
  Si          0.12886      0.16479      0.80530  1.0000
  Si          0.84440      0.96800      0.13638  1.0000
  Si          0.12123      0.97300      0.36761  1.0000
  Si          0.84556      0.87259      0.03561  1.0000
  Si          0.03277      0.15277      0.70324  1.0000
  Si          0.88426      0.03085      0.86841  1.0000
  Ge          0.15422      0.12779      0.53531  1.0000
  Si          0.96714      0.84658      0.20124  1.0000
  O2          0.92221      0.99328      0.00304  1.0000
  O2          0.99896      0.93109      0.33468  1.0000
  O2          0.07454      0.07006      0.67234  1.0000
  O3          0.06513      0.00152      0.49909  1.0000
  O2          0.00642      0.07044      0.83686  1.0000
  O2          0.92467      0.92654      0.16898  1.0000
  O2          0.33815      0.58195      0.33630  1.0000
  O2          0.42320      0.76343      0.67129  1.0000
  O2          0.23413      0.65392      0.00271  1.0000
  O2          0.67815      0.43090      0.83441  1.0000
  O2          0.57383      0.23519      0.16682  1.0000
  O2          0.76818      0.34739      0.49986  1.0000
  O2          0.57768      0.33711      0.00002  1.0000
  O2          0.76629      0.42174      0.66750  1.0000
  O2          0.65664      0.24228      0.33370  1.0000
  O2          0.42777      0.66791      0.50325  1.0000
  O2          0.23435      0.57571      0.16984  1.0000
  O2          0.34475      0.78291      0.83864  1.0000
  O2          0.12016      0.20854      0.97972  1.0000
  O2          0.78636      0.91545      0.30738  1.0000
  O2          0.09148      0.87485      0.64438  1.0000
  O2          0.87608      0.78655      0.47374  1.0000
  O2          0.22780      0.10887      0.80980  1.0000
  O2          0.90741      0.12212      0.14144  1.0000
  O2          0.21028      0.12768      0.36429  1.0000
  O2          0.90967      0.78290      0.03005  1.0000
  O2          0.87827      0.08952      0.69627  1.0000
  O2          0.78625      0.87707      0.86246  1.0000
  O3          0.09135      0.22711      0.52633  1.0000
  O2          0.12107      0.90869      0.19513  1.0000
  O2          0.92896      0.86142      0.25180  1.0000
  O3          0.12870      0.06354      0.58858  1.0000
  O2          0.93156      0.06291      0.92023  1.0000
  O2          0.07084      0.14359      0.75432  1.0000
  O2          0.85697      0.92591      0.08602  1.0000
  O2          0.06859      0.92710      0.41752  1.0000
  O2          0.89567      0.19724      0.98196  1.0000
  O2          0.79130      0.69939      0.31394  1.0000
  O2          0.30523      0.10014      0.64877  1.0000
  O2          0.10523      0.80490      0.48322  1.0000
  O3          0.20039      0.31099      0.81712  1.0000
  O2          0.69275      0.89881      0.14811  1.0000
  O2          0.20476      0.90612      0.35464  1.0000
  O2          0.69336      0.78762      0.02298  1.0000
  O2          0.10270      0.30254      0.68835  1.0000
  O2          0.80602      0.10436      0.85637  1.0000
  O3          0.31730      0.21411      0.52462  1.0000
  O2          0.89698      0.69480      0.18907  1.0000
  O2          0.32056      0.64536      0.25265  1.0000
  O2          0.36153      0.68404      0.58701  1.0000
  O2          0.31798      0.67336      0.91871  1.0000
  O2          0.68958      0.36161      0.75086  1.0000
  O2          0.64070      0.31906      0.08400  1.0000
  O2          0.67959      0.32662      0.41679  1.0000
  O2          0.37066      0.32403      0.97024  1.0000
  O2          0.66944      0.04700      0.30526  1.0000
  O2          0.96049      0.62764      0.63982  1.0000
  O2          0.62912      0.67439      0.47218  1.0000
  O2          0.33856      0.97227      0.80667  1.0000
  O2          0.03953      0.37038      0.13975  1.0000
  O2          0.32650      0.37546      0.36580  1.0000
  O2          0.03990      0.66490      0.03136  1.0000
  O2          0.62869      0.95856      0.69900  1.0000
  O2          0.66946      0.62850      0.86444  1.0000
  O2          0.96164      0.34015      0.53033  1.0000
  O2          0.36951      0.04111      0.19650  1.0000
  O2          0.76741      0.30041      0.01176  1.0000
  O2          0.69089      0.46819      0.34434  1.0000
  O2          0.53902      0.23221      0.67876  1.0000
  O2          0.23716      0.70704      0.51411  1.0000
  O3          0.29788      0.54831      0.84214  1.0000
  O2          0.46279      0.76785      0.17925  1.0000
  O2          0.30296      0.77343      0.32456  1.0000
  O2          0.46247      0.68947      0.98916  1.0000
  O2          0.23408      0.53436      0.65836  1.0000
  O2          0.71237      0.23959      0.82424  1.0000
  O2          0.53928      0.30858      0.49025  1.0000
  O2          0.76531      0.46378      0.15729  1.0000
  O2          0.78009      0.53186      0.02961  1.0000
  O2          0.46125      0.25055      0.36417  1.0000
  O2          0.75616      0.21719      0.69632  1.0000
  O2          0.22263      0.47574      0.52970  1.0000
  O2          0.53034      0.74701      0.86406  1.0000
  O2          0.24551      0.78181      0.19628  1.0000
  O2          0.53404      0.78804      0.30758  1.0000
  O2          0.24961      0.46135      0.97221  1.0000
  O2          0.21921      0.75162      0.64248  1.0000
  O2          0.48065      0.22783      0.80754  1.0000
  O2          0.75335      0.53852      0.47218  1.0000
  O2          0.78054      0.24755      0.14018  1.0000
  O3          0.21282      0.30428      0.90183  1.0000
  O2          0.67431      0.90944      0.23302  1.0000
  O2          0.09756      0.77507      0.56836  1.0000
  O2          0.76646      0.67888      0.39871  1.0000
  O2          0.33231      0.10441      0.73397  1.0000
  O2          0.90387      0.22781      0.06677  1.0000
  O2          0.32211      0.23634      0.43919  1.0000
  O2          0.90587      0.67342      0.10420  1.0000
  O2          0.77526      0.09442      0.77113  1.0000
  O2          0.66864      0.76149      0.93648  1.0000
  O2          0.09968      0.32851      0.60271  1.0000
  O2          0.22970      0.90860      0.26975  1.0000
  O2          0.57797      0.55220      0.98815  1.0000
  O2          0.44096      0.03184      0.32471  1.0000
  O2          0.97501      0.41237      0.65768  1.0000
  O2          0.41850      0.44833      0.49387  1.0000
  O2          0.56716      0.98202      0.82738  1.0000
  O2          0.02397      0.58293      0.15999  1.0000
  O2          0.55401      0.58926      0.34450  1.0000
  O2          0.02631      0.43622      0.01161  1.0000
  O2          0.41400      0.97388      0.67980  1.0000
  O3          0.45351      0.41290      0.83839  1.0000
  O2          0.97607      0.56811      0.51139  1.0000
  O2          0.58343      0.02684      0.17666  1.0000
  O2          0.58094      0.16616      0.25037  1.0000
  O2          0.83758      0.42296      0.58412  1.0000
  O2          0.57873      0.41538      0.91586  1.0000
  O2          0.42154      0.84243      0.75430  1.0000
  O2          0.16199      0.57923      0.08621  1.0000
  O2          0.41589      0.58569      0.41971  1.0000
  F           0.45016      0.90483      0.25075  1.0000
  F           0.10120      0.55370      0.58496  1.0000
  F           0.42200      0.51814      0.90745  1.0000
  F           0.55745      0.10334      0.75256  1.0000
  F           0.90014      0.44930      0.08452  1.0000
  F           0.54594      0.45419      0.41815  1.0000
