data_cif

_audit_creation_method             'generated by GULP'

_symmetry_space_group_name_H-M     'P 1'
_symmetry_Int_Tables_number        1
_symmetry_cell_setting             triclinic

_cell_length_a                       11.9821
_cell_length_b                       11.9821
_cell_length_c                       29.5241
_cell_angle_alpha                   89.8044
_cell_angle_beta                    90.1959
_cell_angle_gamma                  120.5787

loop_
_atom_site_label
_atom_site_fract_x
_atom_site_fract_y
_atom_site_fract_z
_atom_site_occupancy
  Si          0.69960      0.37570      0.03389  1.0000
  Si          0.60182      0.31199      0.36506  1.0000
  Si          0.64533      0.27527      0.70039  1.0000
  Si          0.27068      0.60341      0.53609  1.0000
  Si          0.35090      0.65896      0.86883  1.0000
  Si          0.30975      0.70116      0.20294  1.0000
  Si          0.36659      0.70879      0.30296  1.0000
  Si          0.30283      0.61096      0.97178  1.0000
  Si          0.26612      0.65448      0.63646  1.0000
  Si          0.59426      0.27983      0.80076  1.0000
  Si          0.64982      0.36006      0.46802  1.0000
  Si          0.69201      0.31889      0.13391  1.0000
  Si          0.51620      0.39795      0.96941  1.0000
  Si          0.57723      0.11379      0.30005  1.0000
  Si          0.85536      0.44517      0.63467  1.0000
  Si          0.44389      0.56890      0.47116  1.0000
  Si          0.38894      0.86996      0.80353  1.0000
  Si          0.10037      0.52840      0.13773  1.0000
  Si          0.38882      0.52537      0.36744  1.0000
  Si          0.10462      0.58636      0.03680  1.0000
  Si          0.43602      0.86451      0.70218  1.0000
  Si          0.55974      0.45302      0.86569  1.0000
  Si          0.86081      0.39809      0.53332  1.0000
  Si          0.51925      0.10952      0.19912  1.0000
  Si          0.27280      0.37823      0.85005  1.0000
  Si          0.58922      0.89987      0.18632  1.0000
  Si          0.07108      0.68137      0.52004  1.0000
  Si          0.67373      0.59503      0.35216  1.0000
  Si          0.36466      0.07284      0.68696  1.0000
  Si          0.90192      0.30187      0.01947  1.0000
  Si          0.36909      0.28196      0.48680  1.0000
  Si          0.89072      0.59836      0.15052  1.0000
  Si          0.67222      0.08022      0.81681  1.0000
  Si          0.58587      0.68286      0.98469  1.0000
  Si          0.06369      0.37381      0.64989  1.0000
  Si          0.29274      0.91110      0.31738  1.0000
  Ge          0.25110      0.34449      0.94993  1.0000
  Si          0.65077      0.91109      0.28658  1.0000
  Si          0.05810      0.72628      0.62060  1.0000
  Si          0.72500      0.64840      0.45429  1.0000
  Si          0.31049      0.06940      0.78759  1.0000
  Si          0.90149      0.24768      0.12034  1.0000
  Ge          0.33535      0.26027      0.38691  1.0000
  Si          0.90191      0.65989      0.05027  1.0000
  Si          0.71713      0.06725      0.71625  1.0000
  Si          0.63924      0.73414      0.88256  1.0000
  Si          0.06026      0.31964      0.54926  1.0000
  Si          0.23853      0.91064      0.21651  1.0000
  Si          0.96423      0.11840      0.96803  1.0000
  Si          0.86427      0.84502      0.30245  1.0000
  Si          0.11589      0.00409      0.63618  1.0000
  Si          0.00966      0.86483      0.46844  1.0000
  Si          0.09416      0.13246      0.80070  1.0000
  Si          0.83596      0.96598      0.13547  1.0000
  Si          0.10926      0.97340      0.36882  1.0000
  Si          0.83586      0.87340      0.03440  1.0000
  Si          0.99494      0.12503      0.70067  1.0000
  Si          0.85567      0.01880      0.86841  1.0000
  Si          0.12332      0.10332      0.53615  1.0000
  Si          0.95683      0.84511      0.20138  1.0000
  O2          0.90865      0.99374      0.00117  1.0000
  O2          0.98461      0.91781      0.33568  1.0000
  O2          0.03461      0.04376      0.66842  1.0000
  O2          0.05049      0.98468      0.50175  1.0000
  O2          0.97552      0.05962      0.83510  1.0000
  O2          0.91540      0.92454      0.16842  1.0000
  O2          0.32260      0.58853      0.33748  1.0000
  O2          0.38744      0.73824      0.67024  1.0000
  O2          0.23175      0.66482      0.00459  1.0000
  O2          0.63482      0.40529      0.83256  1.0000
  O2          0.56688      0.23308      0.16580  1.0000
  O2          0.73632      0.32335      0.49995  1.0000
  O2          0.57935      0.33172      0.99937  1.0000
  O2          0.72909      0.39658      0.66661  1.0000
  O2          0.65569      0.24092      0.33226  1.0000
  O2          0.39615      0.64397      0.50429  1.0000
  O2          0.22394      0.57604      0.17105  1.0000
  O2          0.31420      0.74546      0.83690  1.0000
  O3          0.11448      0.19853      0.97148  1.0000
  O2          0.77681      0.91174      0.30710  1.0000
  O2          0.05443      0.84955      0.64133  1.0000
  O2          0.85377      0.77166      0.47434  1.0000
  O2          0.18389      0.06833      0.80739  1.0000
  O2          0.90074      0.12102      0.14046  1.0000
  O3          0.18939      0.12365      0.36537  1.0000
  O2          0.90256      0.78593      0.02975  1.0000
  O2          0.84040      0.06357      0.69552  1.0000
  O2          0.76250      0.86291      0.86251  1.0000
  O2          0.05919      0.19304      0.52946  1.0000
  O2          0.11188      0.90989      0.19639  1.0000
  O2          0.91613      0.85573      0.25191  1.0000
  O2          0.10037      0.04360      0.58597  1.0000
  O2          0.90612      0.05776      0.91876  1.0000
  O2          0.03445      0.10951      0.75088  1.0000
  O2          0.84658      0.92527      0.08494  1.0000
  O2          0.04862      0.91528      0.41809  1.0000
  O2          0.90302      0.20869      0.98043  1.0000
  O2          0.77318      0.69244      0.31448  1.0000
  O2          0.26806      0.07480      0.64866  1.0000
  O2          0.07617      0.78079      0.48162  1.0000
  O2          0.18265      0.28723      0.80827  1.0000
  O2          0.68396      0.89636      0.14779  1.0000
  O2          0.19957      0.91220      0.35643  1.0000
  O2          0.68327      0.78232      0.02237  1.0000
  O2          0.06565      0.27720      0.68819  1.0000
  O2          0.77164      0.08531      0.85523  1.0000
  O2          0.27809      0.19181      0.52858  1.0000
  O2          0.88721      0.69310      0.18906  1.0000
  O2          0.30930      0.64540      0.25338  1.0000
  O2          0.32650      0.65894      0.58658  1.0000
  O2          0.29980      0.65830      0.91966  1.0000
  O2          0.64979      0.33565      0.75027  1.0000
  O2          0.63623      0.31843      0.08347  1.0000
  O2          0.64915      0.30895      0.41719  1.0000
  O3          0.36396      0.30686      0.97428  1.0000
  O2          0.66526      0.04648      0.30336  1.0000
  O2          0.92417      0.60175      0.63764  1.0000
  O2          0.60135      0.65397      0.47312  1.0000
  O2          0.30182      0.93828      0.80701  1.0000
  O2          0.03193      0.37156      0.14010  1.0000
  O3          0.29772      0.37313      0.36257  1.0000
  O2          0.03731      0.67439      0.03348  1.0000
  O2          0.59260      0.93332      0.69921  1.0000
  O2          0.64481      0.61049      0.86373  1.0000
  O2          0.92914      0.31097      0.52984  1.0000
  O2          0.36241      0.04108      0.19675  1.0000
  O2          0.76731      0.30061      0.01242  1.0000
  O2          0.67307      0.46092      0.34669  1.0000
  O2          0.50043      0.20653      0.67891  1.0000
  O2          0.20390      0.67883      0.51326  1.0000
  O2          0.27673      0.51601      0.84611  1.0000
  O2          0.45220      0.76667      0.17959  1.0000
  O2          0.29149      0.77649      0.32443  1.0000
  O2          0.45176      0.68221      0.99016  1.0000
  O2          0.19738      0.50958      0.65794  1.0000
  O2          0.66968      0.21304      0.82359  1.0000
  O2          0.50687      0.28589      0.49074  1.0000
  O2          0.75752      0.46135      0.15727  1.0000
  O2          0.77783      0.53302      0.02917  1.0000
  O3          0.44849      0.23226      0.35825  1.0000
  O2          0.71820      0.19277      0.69585  1.0000
  O2          0.18903      0.44662      0.53067  1.0000
  O2          0.50659      0.72448      0.86625  1.0000
  O2          0.23522      0.78227      0.19826  1.0000
  O2          0.52390      0.78701      0.30768  1.0000
  O3          0.22309      0.45762      0.97859  1.0000
  O2          0.18363      0.72735      0.64100  1.0000
  O2          0.43747      0.19818      0.80617  1.0000
  O2          0.71534      0.51575      0.47059  1.0000
  O2          0.77312      0.24436      0.13859  1.0000
  O3          0.19575      0.29594      0.89315  1.0000
  O2          0.66557      0.90476      0.23240  1.0000
  O2          0.06543      0.74975      0.56650  1.0000
  O2          0.73500      0.66269      0.40023  1.0000
  O2          0.29119      0.06855      0.73337  1.0000
  O2          0.90579      0.23239      0.06619  1.0000
  O3          0.28680      0.20491      0.44370  1.0000
  O2          0.89560      0.67470      0.10445  1.0000
  O2          0.74060      0.07457      0.77035  1.0000
  O2          0.65353      0.74414      0.93662  1.0000
  O2          0.05940      0.30034      0.60348  1.0000
  O2          0.22326      0.91495      0.27066  1.0000
  O2          0.56662      0.54118      0.99143  1.0000
  O2          0.43723      0.03236      0.32436  1.0000
  O2          0.93804      0.38726      0.65816  1.0000
  O2          0.39090      0.42651      0.49279  1.0000
  O2          0.53232      0.95274      0.82591  1.0000
  O2          0.01636      0.58569      0.16008  1.0000
  O2          0.53204      0.57579      0.34542  1.0000
  O2          0.02319      0.44636      0.01248  1.0000
  O2          0.37811      0.94719      0.67869  1.0000
  O2          0.41735      0.40004      0.84406  1.0000
  O2          0.94360      0.54147      0.51094  1.0000
  O2          0.57654      0.02551      0.17677  1.0000
  O2          0.57579      0.16614      0.24933  1.0000
  O2          0.80361      0.39273      0.58369  1.0000
  O2          0.56179      0.40356      0.91656  1.0000
  O2          0.38358      0.81276      0.75316  1.0000
  O2          0.15698      0.58492      0.08752  1.0000
  O2          0.39443      0.57095      0.42029  1.0000
  F           0.44354      0.90369      0.25117  1.0000
  F           0.06586      0.52616      0.58460  1.0000
  F           0.39630      0.49412      0.92306  1.0000
  F           0.51701      0.07500      0.75225  1.0000
  F           0.89453      0.45267      0.08568  1.0000
  F           0.48498      0.40547      0.41379  1.0000
