data_cif

_audit_creation_method             'generated by GULP'

_symmetry_space_group_name_H-M     'P 1'
_symmetry_Int_Tables_number        1
_symmetry_cell_setting             triclinic

_cell_length_a                       11.9525
_cell_length_b                       11.9826
_cell_length_c                       29.5262
_cell_angle_alpha                   89.8098
_cell_angle_beta                    89.4965
_cell_angle_gamma                  120.3323

loop_
_atom_site_label
_atom_site_fract_x
_atom_site_fract_y
_atom_site_fract_z
_atom_site_occupancy
  Si          0.69960      0.37570      0.03389  1.0000
  Si          0.60097      0.31638      0.36520  1.0000
  Si          0.64603      0.28342      0.69786  1.0000
  Si          0.27155      0.61073      0.53094  1.0000
  Si          0.35710      0.65281      0.86609  1.0000
  Si          0.30928      0.69875      0.20002  1.0000
  Si          0.36036      0.69669      0.30034  1.0000
  Si          0.30332      0.60876      0.96897  1.0000
  Si          0.26735      0.66197      0.63133  1.0000
  Si          0.59754      0.28595      0.80070  1.0000
  Si          0.65151      0.36889      0.46566  1.0000
  Si          0.69248      0.31910      0.13393  1.0000
  Si          0.51924      0.39974      0.96928  1.0000
  Si          0.56627      0.10774      0.30059  1.0000
  Si          0.85906      0.45484      0.63198  1.0000
  Si          0.44498      0.57286      0.46619  1.0000
  Si          0.38381      0.86109      0.80102  1.0000
  Si          0.10146      0.52859      0.13502  1.0000
  Si          0.39567      0.52248      0.36480  1.0000
  Si          0.10381      0.58559      0.03408  1.0000
  Si          0.43667      0.86841      0.69724  1.0000
  Si          0.57201      0.45815      0.86596  1.0000
  Si          0.85952      0.40509      0.53063  1.0000
  Si          0.51691      0.10865      0.19919  1.0000
  Si          0.28364      0.37389      0.84751  1.0000
  Si          0.58958      0.90062      0.18507  1.0000
  Si          0.07042      0.68781      0.51628  1.0000
  Si          0.67811      0.59517      0.35026  1.0000
  Si          0.36369      0.08065      0.68069  1.0000
  Si          0.90221      0.30138      0.01787  1.0000
  Si          0.37262      0.29209      0.48043  1.0000
  Si          0.89085      0.59780      0.14902  1.0000
  Si          0.67027      0.07671      0.81472  1.0000
  Si          0.58644      0.68387      0.98341  1.0000
  Si          0.06646      0.38202      0.64619  1.0000
  Si          0.28394      0.89740      0.31473  1.0000
  Ge          0.25476      0.34357      0.94776  1.0000
  Si          0.64323      0.90675      0.28565  1.0000
  Si          0.05983      0.73501      0.61688  1.0000
  Si          0.72430      0.64984      0.45077  1.0000
  Ge          0.32882      0.07083      0.78082  1.0000
  Si          0.90300      0.24885      0.11882  1.0000
  Si          0.31829      0.24351      0.38005  1.0000
  Si          0.90089      0.65986      0.04881  1.0000
  Si          0.71963      0.07044      0.71254  1.0000
  Si          0.64715      0.73729      0.88144  1.0000
  Si          0.06076      0.32761      0.54555  1.0000
  Si          0.23596      0.90667      0.21436  1.0000
  Si          0.96553      0.11930      0.96512  1.0000
  Si          0.86006      0.84420      0.29915  1.0000
  Si          0.12024      0.01379      0.63032  1.0000
  Si          0.00410      0.86822      0.46529  1.0000
  Si          0.10351      0.13106      0.79661  1.0000
  Si          0.83759      0.96782      0.13282  1.0000
  Si          0.10121      0.96315      0.36451  1.0000
  Si          0.83507      0.87413      0.03178  1.0000
  Si          0.00227      0.13508      0.69752  1.0000
  Si          0.86118      0.02215      0.86515  1.0000
  Si          0.12153      0.10984      0.53025  1.0000
  Si          0.95602      0.84498      0.19841  1.0000
  O2          0.90753      0.99117      0.99696  1.0000
  O2          0.98249      0.92273      0.33111  1.0000
  O2          0.04335      0.05700      0.66390  1.0000
  O2          0.04448      0.99051      0.49696  1.0000
  O2          0.97975      0.06687      0.83085  1.0000
  O2          0.91734      0.92347      0.16409  1.0000
  O2          0.31982      0.57197      0.33276  1.0000
  O2          0.38957      0.74518      0.66444  1.0000
  O2          0.23020      0.66319      0.00106  1.0000
  O2          0.65092      0.41251      0.83307  1.0000
  O2          0.56740      0.23410      0.16656  1.0000
  O2          0.73459      0.32916      0.49840  1.0000
  O2          0.57925      0.33231      0.00014  1.0000
  O2          0.73312      0.40557      0.66503  1.0000
  O2          0.64157      0.23324      0.33286  1.0000
  O2          0.39606      0.64982      0.49842  1.0000
  O2          0.22595      0.57613      0.16749  1.0000
  O2          0.31760      0.73250      0.83230  1.0000
  O3          0.11534      0.19864      0.96925  1.0000
  O2          0.76930      0.90707      0.30582  1.0000
  O2          0.05637      0.85920      0.63682  1.0000
  O2          0.84954      0.77594      0.47131  1.0000
  O3          0.18244      0.06051      0.80180  1.0000
  O2          0.90265      0.12215      0.13881  1.0000
  O2          0.19230      0.11796      0.35971  1.0000
  O2          0.90120      0.78550      0.02818  1.0000
  O2          0.84641      0.07290      0.69216  1.0000
  O2          0.77053      0.86579      0.86110  1.0000
  O2          0.05956      0.20177      0.52494  1.0000
  O2          0.11125      0.90854      0.19410  1.0000
  O2          0.91199      0.85958      0.24824  1.0000
  O2          0.10151      0.05192      0.58032  1.0000
  O2          0.91083      0.06537      0.91520  1.0000
  O2          0.03993      0.12030      0.74758  1.0000
  O2          0.84673      0.93016      0.08168  1.0000
  O2          0.04387      0.92020      0.41461  1.0000
  O2          0.90277      0.20803      0.97886  1.0000
  O2          0.77731      0.69198      0.31156  1.0000
  O2          0.27417      0.08101      0.63921  1.0000
  O2          0.07428      0.78732      0.47804  1.0000
  O2          0.19927      0.28566      0.80530  1.0000
  O2          0.68600      0.89849      0.14652  1.0000
  O2          0.18459      0.89482      0.35320  1.0000
  O2          0.68211      0.78308      0.02105  1.0000
  O2          0.06950      0.28671      0.68469  1.0000
  O2          0.76953      0.08121      0.85223  1.0000
  O2          0.27473      0.19322      0.51912  1.0000
  O2          0.88725      0.69280      0.18754  1.0000
  O2          0.30527      0.63988      0.25028  1.0000
  O2          0.32754      0.66533      0.58127  1.0000
  O2          0.30465      0.65655      0.91664  1.0000
  O2          0.64681      0.33589      0.74859  1.0000
  O2          0.63651      0.31890      0.08385  1.0000
  O2          0.65478      0.31391      0.41557  1.0000
  O3          0.36685      0.30826      0.97398  1.0000
  O2          0.65361      0.03908      0.30402  1.0000
  O2          0.92740      0.61086      0.63575  1.0000
  O2          0.60179      0.66010      0.46930  1.0000
  O3          0.29358      0.92186      0.80668  1.0000
  O2          0.03321      0.37210      0.13809  1.0000
  O2          0.30827      0.36592      0.36192  1.0000
  O2          0.03644      0.67388      0.03146  1.0000
  O2          0.59389      0.93983      0.69537  1.0000
  O2          0.65769      0.61496      0.86440  1.0000
  O2          0.92805      0.31769      0.52793  1.0000
  O2          0.36020      0.04001      0.19637  1.0000
  O2          0.76709      0.30009      0.01213  1.0000
  O2          0.67730      0.46086      0.34317  1.0000
  O2          0.50262      0.21477      0.67621  1.0000
  O2          0.20457      0.68714      0.50914  1.0000
  O2          0.28340      0.50988      0.84463  1.0000
  O2          0.45421      0.76694      0.17804  1.0000
  O2          0.28420      0.76374      0.32277  1.0000
  O2          0.45039      0.68014      0.98862  1.0000
  O2          0.19887      0.51827      0.65386  1.0000
  O2          0.66757      0.20924      0.81989  1.0000
  O2          0.50700      0.29297      0.48820  1.0000
  O2          0.75818      0.46128      0.15699  1.0000
  O2          0.77742      0.53259      0.02868  1.0000
  O2          0.44450      0.24306      0.36055  1.0000
  O2          0.71001      0.19264      0.69545  1.0000
  O2          0.18773      0.45463      0.52607  1.0000
  O2          0.51370      0.72287      0.86368  1.0000
  O2          0.23590      0.78106      0.19499  1.0000
  O2          0.51703      0.77905      0.30538  1.0000
  O3          0.22266      0.45569      0.97569  1.0000
  O2          0.18707      0.73774      0.63639  1.0000
  O3          0.44417      0.21391      0.80843  1.0000
  O2          0.72631      0.52511      0.47050  1.0000
  O2          0.77399      0.24451      0.13804  1.0000
  O3          0.20692      0.29186      0.89114  1.0000
  O2          0.66293      0.90550      0.23149  1.0000
  O2          0.06364      0.75571      0.56270  1.0000
  O2          0.74669      0.66916      0.39660  1.0000
  O3          0.28179      0.07564      0.72404  1.0000
  O2          0.90733      0.23318      0.06471  1.0000
  O2          0.29859      0.22211      0.43429  1.0000
  O2          0.89473      0.67426      0.10307  1.0000
  O2          0.73181      0.07078      0.76659  1.0000
  O2          0.65604      0.74802      0.93554  1.0000
  O2          0.06334      0.30920      0.59974  1.0000
  O2          0.21426      0.90245      0.26861  1.0000
  O2          0.56966      0.54333      0.99046  1.0000
  O2          0.42349      0.02355      0.32372  1.0000
  O2          0.93853      0.39274      0.65502  1.0000
  O2          0.38563      0.43090      0.48948  1.0000
  O2          0.52870      0.95150      0.82189  1.0000
  O2          0.01764      0.58634      0.15802  1.0000
  O2          0.53820      0.58024      0.34176  1.0000
  O2          0.02214      0.44591      0.01031  1.0000
  O2          0.38476      0.95755      0.67534  1.0000
  O2          0.43243      0.40594      0.84294  1.0000
  O2          0.94542      0.54738      0.50774  1.0000
  O2          0.57509      0.02544      0.17635  1.0000
  O2          0.56899      0.16179      0.24981  1.0000
  O2          0.80479      0.40334      0.58151  1.0000
  O2          0.56919      0.40577      0.91680  1.0000
  O2          0.38578      0.81760      0.74843  1.0000
  O2          0.15716      0.58422      0.08447  1.0000
  O2          0.39367      0.57415      0.41553  1.0000
  F           0.43641      0.89955      0.25076  1.0000
  F           0.06682      0.53493      0.58251  1.0000
  F           0.40166      0.49436      0.92190  1.0000
  F           0.47923      0.07467      0.75403  1.0000
  F           0.89490      0.45261      0.08494  1.0000
  F           0.52473      0.44363      0.41625  1.0000
