data_cif

_audit_creation_method             'generated by GULP'

_symmetry_space_group_name_H-M     'P 1'
_symmetry_Int_Tables_number        1
_symmetry_cell_setting             triclinic

_cell_length_a                       11.9789
_cell_length_b                       11.9976
_cell_length_c                       29.3777
_cell_angle_alpha                   90.2319
_cell_angle_beta                    90.3137
_cell_angle_gamma                  120.2319

loop_
_atom_site_label
_atom_site_fract_x
_atom_site_fract_y
_atom_site_fract_z
_atom_site_occupancy
  Si          0.69960      0.37570      0.03389  1.0000
  Si          0.61938      0.32531      0.36854  1.0000
  Si          0.68372      0.29874      0.70101  1.0000
  Si          0.30133      0.62248      0.53688  1.0000
  Si          0.37158      0.68180      0.86670  1.0000
  Si          0.32263      0.69612      0.20293  1.0000
  Si          0.37563      0.70142      0.30447  1.0000
  Si          0.31522      0.61494      0.96897  1.0000
  Si          0.29938      0.67674      0.63777  1.0000
  Si          0.63651      0.30471      0.80179  1.0000
  Si          0.67900      0.38039      0.46945  1.0000
  Si          0.69680      0.31679      0.13428  1.0000
  Si          0.52557      0.40857      0.96675  1.0000
  Si          0.58078      0.11402      0.30315  1.0000
  Si          0.89151      0.47056      0.63593  1.0000
  Si          0.47289      0.58463      0.47180  1.0000
  Si          0.42391      0.90091      0.80471  1.0000
  Si          0.11076      0.52531      0.13732  1.0000
  Si          0.41542      0.53128      0.36978  1.0000
  Si          0.10881      0.57828      0.03554  1.0000
  Si          0.47158      0.88943      0.70323  1.0000
  Si          0.58730      0.46891      0.86376  1.0000
  Si          0.89129      0.41767      0.53406  1.0000
  Si          0.53138      0.10951      0.20082  1.0000
  Ge          0.31371      0.41233      0.85867  1.0000
  Si          0.60046      0.89883      0.18904  1.0000
  Si          0.10048      0.69840      0.52116  1.0000
  Si          0.69520      0.60253      0.35460  1.0000
  Si          0.40276      0.09985      0.68830  1.0000
  Si          0.90009      0.29780      0.01915  1.0000
  Si          0.40119      0.30386      0.48537  1.0000
  Si          0.89958      0.59348      0.15201  1.0000
  Si          0.70828      0.10242      0.81777  1.0000
  Si          0.59746      0.69300      0.98293  1.0000
  Si          0.09887      0.39737      0.65171  1.0000
  Si          0.29855      0.90338      0.31682  1.0000
  Si          0.24124      0.32750      0.95438  1.0000
  Si          0.65700      0.91145      0.29035  1.0000
  Si          0.09179      0.75002      0.62196  1.0000
  Si          0.75114      0.66146      0.45549  1.0000
  Si          0.34963      0.10353      0.78931  1.0000
  Si          0.90706      0.24750      0.12005  1.0000
  Si          0.33935      0.25334      0.38437  1.0000
  Si          0.90885      0.65624      0.05164  1.0000
  Si          0.75298      0.08905      0.71680  1.0000
  Si          0.65808      0.74943      0.88127  1.0000
  Si          0.09227      0.34094      0.55037  1.0000
  Si          0.25332      0.90638      0.21526  1.0000
  Si          0.96619      0.11469      0.97075  1.0000
  Si          0.87491      0.85182      0.30566  1.0000
  Si          0.15352      0.03002      0.63731  1.0000
  Si          0.03311      0.87877      0.47104  1.0000
  Si          0.12800      0.16154      0.80493  1.0000
  Si          0.84544      0.96878      0.13647  1.0000
  Si          0.12182      0.97268      0.36982  1.0000
  Si          0.84447      0.87164      0.03562  1.0000
  Si          0.03210      0.15032      0.70300  1.0000
  Si          0.88354      0.02895      0.86813  1.0000
  Si          0.15449      0.12364      0.53619  1.0000
  Ge          0.96999      0.84585      0.20259  1.0000
  O2          0.92115      0.99211      0.00286  1.0000
  O2          0.99538      0.92977      0.33952  1.0000
  O2          0.07375      0.07077      0.67005  1.0000
  O2          0.07430      0.00026      0.50389  1.0000
  O2          0.00481      0.06767      0.83625  1.0000
  O3          0.93277      0.93595      0.16737  1.0000
  O2          0.33747      0.58013      0.33781  1.0000
  O2          0.42126      0.76190      0.67144  1.0000
  O2          0.23416      0.65403      0.00296  1.0000
  O2          0.67764      0.42974      0.83453  1.0000
  O2          0.57533      0.23129      0.16716  1.0000
  O2          0.76504      0.34149      0.50123  1.0000
  O2          0.57819      0.33733      0.99987  1.0000
  O2          0.76543      0.42029      0.66775  1.0000
  O2          0.65685      0.24062      0.33544  1.0000
  O2          0.42541      0.66121      0.50472  1.0000
  O2          0.23649      0.57205      0.17003  1.0000
  O2          0.34372      0.78094      0.83887  1.0000
  O2          0.11942      0.20722      0.97969  1.0000
  O2          0.78294      0.91356      0.31183  1.0000
  O2          0.09045      0.87565      0.64187  1.0000
  O2          0.87851      0.78790      0.47556  1.0000
  O2          0.22768      0.10700      0.81046  1.0000
  O2          0.90613      0.12262      0.14056  1.0000
  O2          0.21219      0.12671      0.36413  1.0000
  O2          0.91004      0.78294      0.03170  1.0000
  O2          0.87743      0.08656      0.69655  1.0000
  O2          0.78454      0.87512      0.86202  1.0000
  O2          0.09186      0.21456      0.53009  1.0000
  O3          0.13218      0.90844      0.19333  1.0000
  O3          0.93214      0.87193      0.25598  1.0000
  O2          0.14119      0.07186      0.58686  1.0000
  O2          0.93151      0.06069      0.91994  1.0000
  O2          0.07170      0.13730      0.75353  1.0000
  O2          0.85201      0.92450      0.08572  1.0000
  O2          0.07607      0.93321      0.42091  1.0000
  O2          0.89593      0.19733      0.98101  1.0000
  O2          0.79176      0.69892      0.31586  1.0000
  O2          0.30536      0.09937      0.64954  1.0000
  O2          0.10222      0.79664      0.48285  1.0000
  O3          0.19873      0.30808      0.81674  1.0000
  O2          0.69532      0.89459      0.15076  1.0000
  O2          0.20123      0.90279      0.35503  1.0000
  O2          0.69284      0.78601      0.02254  1.0000
  O2          0.10055      0.30165      0.69015  1.0000
  O2          0.80607      0.10320      0.85645  1.0000
  O2          0.30621      0.20596      0.52396  1.0000
  O3          0.89280      0.68273      0.19157  1.0000
  O2          0.32043      0.64129      0.25383  1.0000
  O2          0.35837      0.67902      0.58757  1.0000
  O2          0.31701      0.67173      0.91883  1.0000
  O2          0.69015      0.36013      0.75123  1.0000
  O2          0.63961      0.31568      0.08359  1.0000
  O2          0.67794      0.32452      0.41864  1.0000
  O2          0.36969      0.32248      0.97025  1.0000
  O2          0.66713      0.04476      0.30752  1.0000
  O2          0.95910      0.62663      0.63947  1.0000
  O2          0.62965      0.67190      0.47429  1.0000
  O2          0.33838      0.97054      0.80718  1.0000
  O2          0.04040      0.36914      0.13896  1.0000
  O2          0.32787      0.37486      0.36628  1.0000
  O2          0.04028      0.66568      0.03257  1.0000
  O2          0.62768      0.95667      0.69921  1.0000
  O2          0.66766      0.62646      0.86429  1.0000
  O2          0.96001      0.33046      0.53108  1.0000
  O2          0.37566      0.03906      0.19762  1.0000
  O2          0.76845      0.30212      0.01118  1.0000
  O2          0.69378      0.46827      0.34609  1.0000
  O2          0.53885      0.23047      0.67935  1.0000
  O2          0.23430      0.69795      0.51397  1.0000
  O3          0.29588      0.54556      0.84221  1.0000
  O2          0.46644      0.76385      0.18123  1.0000
  O2          0.30037      0.77083      0.32533  1.0000
  O2          0.46171      0.68833      0.98917  1.0000
  O2          0.23208      0.53312      0.65943  1.0000
  O2          0.71259      0.23845      0.82465  1.0000
  O2          0.53612      0.30507      0.49197  1.0000
  O2          0.76441      0.45937      0.15707  1.0000
  O2          0.77986      0.53238      0.03150  1.0000
  O2          0.46297      0.25093      0.36400  1.0000
  O2          0.75587      0.21530      0.69644  1.0000
  O2          0.21948      0.46632      0.53134  1.0000
  O2          0.52864      0.74470      0.86376  1.0000
  O2          0.24966      0.77790      0.19652  1.0000
  O2          0.53161      0.78558      0.30984  1.0000
  O2          0.24887      0.46005      0.97229  1.0000
  O2          0.21740      0.75050      0.64218  1.0000
  O2          0.48088      0.22627      0.80813  1.0000
  O2          0.75268      0.53640      0.47460  1.0000
  O2          0.78006      0.24500      0.13901  1.0000
  O3          0.21169      0.30211      0.90177  1.0000
  O2          0.67540      0.90536      0.23596  1.0000
  O2          0.09498      0.76891      0.56747  1.0000
  O2          0.76824      0.67819      0.40095  1.0000
  O2          0.33218      0.10292      0.73464  1.0000
  O2          0.90441      0.22821      0.06560  1.0000
  O2          0.32419      0.23410      0.43880  1.0000
  O2          0.90902      0.67460      0.10634  1.0000
  O2          0.77501      0.09307      0.77128  1.0000
  O2          0.66711      0.76058      0.93614  1.0000
  O2          0.09399      0.32367      0.60479  1.0000
  O2          0.22751      0.90307      0.26965  1.0000
  O2          0.57726      0.55114      0.98771  1.0000
  O2          0.43798      0.03057      0.32494  1.0000
  O2          0.97444      0.41311      0.65958  1.0000
  O2          0.41697      0.44364      0.49457  1.0000
  O2          0.56692      0.98047      0.82770  1.0000
  O2          0.02538      0.57989      0.16089  1.0000
  O2          0.55565      0.58889      0.34600  1.0000
  O2          0.02655      0.43748      0.01134  1.0000
  O2          0.41289      0.97207      0.68039  1.0000
  O3          0.45180      0.41042      0.83816  1.0000
  O2          0.97511      0.55887      0.51117  1.0000
  O2          0.58937      0.02497      0.17898  1.0000
  O2          0.58459      0.16584      0.25172  1.0000
  O2          0.83796      0.41721      0.58481  1.0000
  O2          0.57683      0.41294      0.91560  1.0000
  O2          0.42093      0.84067      0.75462  1.0000
  O2          0.16334      0.57967      0.08650  1.0000
  O2          0.41753      0.58413      0.42099  1.0000
  F           0.45064      0.90181      0.25216  1.0000
  F           0.09923      0.54907      0.58551  1.0000
  F           0.42077      0.51622      0.90729  1.0000
  F           0.55761      0.10198      0.75311  1.0000
  F           0.90132      0.45023      0.08489  1.0000
  F           0.54849      0.45390      0.41909  1.0000
