data_cif

_audit_creation_method             'generated by GULP'

_symmetry_space_group_name_H-M     'P 1'
_symmetry_Int_Tables_number        1
_symmetry_cell_setting             triclinic

_cell_length_a                       12.0059
_cell_length_b                       11.9487
_cell_length_c                       29.4837
_cell_angle_alpha                   89.7203
_cell_angle_beta                    89.9571
_cell_angle_gamma                  120.2706

loop_
_atom_site_label
_atom_site_fract_x
_atom_site_fract_y
_atom_site_fract_z
_atom_site_occupancy
  Si          0.69960      0.37570      0.03389  1.0000
  Si          0.60570      0.31900      0.36623  1.0000
  Si          0.65381      0.28436      0.69835  1.0000
  Si          0.27999      0.61132      0.53323  1.0000
  Si          0.35827      0.66326      0.86819  1.0000
  Si          0.31127      0.69892      0.20178  1.0000
  Si          0.36592      0.69993      0.30215  1.0000
  Si          0.30403      0.61023      0.97075  1.0000
  Si          0.27476      0.66248      0.63375  1.0000
  Si          0.60583      0.28645      0.79940  1.0000
  Si          0.66024      0.37060      0.46687  1.0000
  Si          0.69242      0.31873      0.13436  1.0000
  Si          0.51661      0.39667      0.96881  1.0000
  Si          0.56946      0.11022      0.30109  1.0000
  Si          0.86494      0.45495      0.63304  1.0000
  Si          0.45496      0.57672      0.46866  1.0000
  Si          0.40213      0.87404      0.80132  1.0000
  Si          0.10140      0.52792      0.13723  1.0000
  Si          0.40310      0.52676      0.36705  1.0000
  Si          0.10530      0.58618      0.03607  1.0000
  Si          0.44524      0.87157      0.69945  1.0000
  Si          0.56731      0.45560      0.86512  1.0000
  Si          0.86910      0.40513      0.53148  1.0000
  Si          0.51728      0.10857      0.19951  1.0000
  Si          0.28317      0.38432      0.84718  1.0000
  Si          0.58962      0.89976      0.18617  1.0000
  Si          0.07917      0.68788      0.51755  1.0000
  Si          0.68319      0.59874      0.35216  1.0000
  Si          0.37388      0.08231      0.68603  1.0000
  Si          0.90289      0.30247      0.01946  1.0000
  Si          0.38335      0.29500      0.48196  1.0000
  Si          0.89163      0.59732      0.15041  1.0000
  Si          0.68310      0.08499      0.81336  1.0000
  Si          0.58605      0.68181      0.98468  1.0000
  Si          0.07262      0.38308      0.64813  1.0000
  Si          0.28857      0.90063      0.31582  1.0000
  Ge          0.25327      0.34374      0.94720  1.0000
  Si          0.64734      0.90922      0.28684  1.0000
  Si          0.06760      0.73486      0.61812  1.0000
  Si          0.73261      0.65296      0.45285  1.0000
  Si          0.32484      0.07548      0.78733  1.0000
  Si          0.90217      0.24818      0.12041  1.0000
  Si          0.32518      0.24664      0.38154  1.0000
  Si          0.90212      0.65927      0.05005  1.0000
  Si          0.72521      0.07451      0.71224  1.0000
  Si          0.64398      0.73559      0.88273  1.0000
  Si          0.06980      0.32820      0.54751  1.0000
  Si          0.23783      0.90738      0.21520  1.0000
  Si          0.96557      0.11925      0.96718  1.0000
  Si          0.86465      0.84745      0.30088  1.0000
  Si          0.12858      0.01452      0.63293  1.0000
  Si          0.01307      0.86963      0.46689  1.0000
  Ge          0.10322      0.13598      0.79863  1.0000
  Si          0.83626      0.96608      0.13470  1.0000
  Si          0.10699      0.96621      0.36604  1.0000
  Si          0.83544      0.87320      0.03353  1.0000
  Si          0.00097      0.13097      0.69673  1.0000
  Si          0.85975      0.01957      0.86764  1.0000
  Si          0.13483      0.11228      0.53206  1.0000
  Si          0.95801      0.84517      0.20014  1.0000
  O2          0.91041      0.99360      0.00020  1.0000
  O2          0.98714      0.92642      0.33301  1.0000
  O2          0.04333      0.05472      0.66273  1.0000
  O2          0.05611      0.99229      0.49888  1.0000
  O3          0.97934      0.05355      0.83621  1.0000
  O2          0.91702      0.92323      0.16625  1.0000
  O2          0.32661      0.57640      0.33515  1.0000
  O2          0.39613      0.74640      0.66708  1.0000
  O2          0.23200      0.66346      0.00368  1.0000
  O2          0.64518      0.41000      0.83219  1.0000
  O2          0.56735      0.23354      0.16642  1.0000
  O2          0.74433      0.32996      0.49887  1.0000
  O2          0.57966      0.33125      0.99957  1.0000
  O2          0.73823      0.40680      0.66491  1.0000
  O2          0.64528      0.23639      0.33325  1.0000
  O2          0.40490      0.65168      0.50127  1.0000
  O2          0.22569      0.57463      0.16981  1.0000
  O2          0.32556      0.75102      0.83529  1.0000
  O3          0.11556      0.19847      0.96861  1.0000
  O2          0.77442      0.91104      0.30673  1.0000
  O2          0.06605      0.85991      0.63849  1.0000
  O2          0.85912      0.77876      0.47314  1.0000
  O3          0.20018      0.07031      0.80856  1.0000
  O2          0.90095      0.12080      0.14048  1.0000
  O2          0.19815      0.12129      0.36138  1.0000
  O2          0.90214      0.78530      0.02947  1.0000
  O2          0.84751      0.07187      0.69019  1.0000
  O2          0.76553      0.86400      0.86265  1.0000
  O2          0.07055      0.20233      0.52756  1.0000
  O2          0.11235      0.90825      0.19517  1.0000
  O2          0.91682      0.86083      0.25018  1.0000
  O2          0.12282      0.05547      0.58194  1.0000
  O2          0.90421      0.06015      0.91843  1.0000
  O3          0.03348      0.10392      0.74616  1.0000
  O2          0.84475      0.92662      0.08376  1.0000
  O2          0.05140      0.92214      0.41617  1.0000
  O2          0.90509      0.20969      0.98055  1.0000
  O2          0.78145      0.69540      0.31350  1.0000
  O2          0.27782      0.08529      0.64805  1.0000
  O2          0.08214      0.78712      0.47906  1.0000
  O3          0.19849      0.30162      0.80433  1.0000
  O2          0.68534      0.89677      0.14791  1.0000
  O2          0.18989      0.89806      0.35409  1.0000
  O2          0.68335      0.78174      0.02205  1.0000
  O2          0.07290      0.28531      0.68675  1.0000
  O2          0.78215      0.09075      0.85165  1.0000
  O2          0.28651      0.19612      0.52045  1.0000
  O2          0.88860      0.69256      0.18906  1.0000
  O2          0.30949      0.64124      0.25216  1.0000
  O2          0.33495      0.66588      0.58382  1.0000
  O2          0.30520      0.66243      0.91888  1.0000
  O2          0.65918      0.34345      0.74868  1.0000
  O2          0.63757      0.31897      0.08385  1.0000
  O2          0.66091      0.31571      0.41645  1.0000
  O3          0.36493      0.30569      0.97280  1.0000
  O2          0.65718      0.04210      0.30466  1.0000
  O2          0.93436      0.61173      0.63615  1.0000
  O2          0.61133      0.66373      0.47175  1.0000
  O2          0.31658      0.94323      0.80528  1.0000
  O2          0.03238      0.37095      0.13999  1.0000
  O2          0.31540      0.36996      0.36382  1.0000
  O2          0.03717      0.67386      0.03284  1.0000
  O2          0.60104      0.94110      0.69556  1.0000
  O2          0.65216      0.61286      0.86418  1.0000
  O2          0.93796      0.31788      0.52870  1.0000
  O2          0.36116      0.04016      0.19667  1.0000
  O2          0.76863      0.30137      0.01254  1.0000
  O2          0.68154      0.46392      0.34448  1.0000
  O2          0.50906      0.21589      0.67762  1.0000
  O2          0.21284      0.68730      0.51078  1.0000
  O2          0.28445      0.52118      0.84553  1.0000
  O2          0.45445      0.76578      0.17928  1.0000
  O2          0.29005      0.76734      0.32414  1.0000
  O2          0.45129      0.67968      0.98998  1.0000
  O2          0.20595      0.51814      0.65616  1.0000
  O2          0.68141      0.21830      0.82101  1.0000
  O2          0.51700      0.29500      0.48948  1.0000
  O2          0.75862      0.46119      0.15761  1.0000
  O2          0.77825      0.53295      0.02928  1.0000
  O2          0.44979      0.24560      0.36158  1.0000
  O2          0.72541      0.20077      0.69276  1.0000
  O2          0.19713      0.45474      0.52834  1.0000
  O2          0.51267      0.72656      0.86610  1.0000
  O2          0.23750      0.78091      0.19623  1.0000
  O2          0.52207      0.78243      0.30700  1.0000
  O3          0.22341      0.45658      0.97598  1.0000
  O2          0.19353      0.73695      0.63824  1.0000
  O2          0.45044      0.20457      0.80578  1.0000
  O2          0.73435      0.52715      0.47206  1.0000
  O2          0.77373      0.24418      0.13901  1.0000
  O3          0.20385      0.29642      0.88968  1.0000
  O2          0.66421      0.90578      0.23261  1.0000
  O2          0.07244      0.75648      0.56387  1.0000
  O2          0.75274      0.67263      0.39860  1.0000
  O2          0.30281      0.07981      0.73305  1.0000
  O2          0.90651      0.23266      0.06624  1.0000
  O2          0.30789      0.22504      0.43581  1.0000
  O2          0.89643      0.67432      0.10433  1.0000
  O2          0.75124      0.08107      0.76637  1.0000
  O2          0.65536      0.74428      0.93688  1.0000
  O2          0.06939      0.30914      0.60184  1.0000
  O2          0.21852      0.90503      0.26950  1.0000
  O2          0.56624      0.53944      0.99112  1.0000
  O2          0.42804      0.02680      0.32441  1.0000
  O2          0.94710      0.39657      0.65674  1.0000
  O2          0.39709      0.43422      0.49146  1.0000
  O2          0.54557      0.95595      0.82283  1.0000
  O2          0.01740      0.58510      0.16002  1.0000
  O2          0.54415      0.58485      0.34370  1.0000
  O2          0.02383      0.44628      0.01214  1.0000
  O2          0.38615      0.95557      0.67773  1.0000
  O2          0.42783      0.40624      0.84233  1.0000
  O2          0.95444      0.54752      0.50859  1.0000
  O2          0.57475      0.02458      0.17691  1.0000
  O2          0.57036      0.16309      0.25011  1.0000
  O2          0.81395      0.40285      0.58213  1.0000
  O2          0.56477      0.40310      0.91608  1.0000
  O2          0.39605      0.81756      0.75072  1.0000
  O2          0.15722      0.58441      0.08682  1.0000
  O2          0.40306      0.57880      0.41794  1.0000
  F           0.43908      0.90058      0.25142  1.0000
  F           0.07558      0.53498      0.58342  1.0000
  F           0.39889      0.49375      0.92170  1.0000
  F           0.52742      0.08188      0.75051  1.0000
  F           0.89592      0.45288      0.08600  1.0000
  F           0.53226      0.44665      0.41761  1.0000
