data_cif

_audit_creation_method             'generated by GULP'

_symmetry_space_group_name_H-M     'P 1'
_symmetry_Int_Tables_number        1
_symmetry_cell_setting             triclinic

_cell_length_a                       12.0164
_cell_length_b                       11.9068
_cell_length_c                       29.5218
_cell_angle_alpha                   89.2881
_cell_angle_beta                    89.9999
_cell_angle_gamma                  120.3048

loop_
_atom_site_label
_atom_site_fract_x
_atom_site_fract_y
_atom_site_fract_z
_atom_site_occupancy
  Si          0.69960      0.37570      0.03389  1.0000
  Si          0.60920      0.32255      0.36994  1.0000
  Si          0.65650      0.27929      0.70118  1.0000
  Si          0.28500      0.61273      0.53722  1.0000
  Si          0.36241      0.65941      0.87100  1.0000
  Si          0.31465      0.70352      0.20623  1.0000
  Si          0.36890      0.70410      0.30646  1.0000
  Si          0.31560      0.60768      0.97375  1.0000
  Si          0.27835      0.66084      0.63770  1.0000
  Si          0.60282      0.27986      0.80141  1.0000
  Si          0.66396      0.37065      0.47042  1.0000
  Si          0.69469      0.32397      0.13665  1.0000
  Si          0.51533      0.38608      0.96978  1.0000
  Si          0.57241      0.11558      0.30422  1.0000
  Si          0.86805      0.45184      0.63597  1.0000
  Si          0.46007      0.57872      0.47306  1.0000
  Si          0.40024      0.87123      0.80479  1.0000
  Si          0.10766      0.53405      0.14099  1.0000
  Si          0.40789      0.53154      0.37167  1.0000
  Si          0.12094      0.59730      0.03786  1.0000
  Si          0.44853      0.86780      0.70342  1.0000
  Si          0.56531      0.44933      0.86665  1.0000
  Si          0.87305      0.40467      0.53458  1.0000
  Si          0.52070      0.11215      0.20285  1.0000
  Si          0.28082      0.37741      0.85147  1.0000
  Si          0.59364      0.90344      0.19004  1.0000
  Si          0.08404      0.68842      0.52123  1.0000
  Si          0.68747      0.60378      0.35625  1.0000
  Si          0.37749      0.07810      0.68819  1.0000
  Si          0.91248      0.30903      0.02055  1.0000
  Si          0.38731      0.29497      0.48641  1.0000
  Si          0.89510      0.60597      0.15617  1.0000
  Si          0.68190      0.07995      0.81760  1.0000
  Si          0.59514      0.67435      0.98709  1.0000
  Si          0.07539      0.37961      0.65139  1.0000
  Si          0.29108      0.90529      0.31945  1.0000
  Ge          0.25346      0.33746      0.95130  1.0000
  Si          0.65067      0.91405      0.29066  1.0000
  Si          0.07105      0.73312      0.62157  1.0000
  Si          0.73723      0.65485      0.45679  1.0000
  Si          0.32039      0.07126      0.78881  1.0000
  Si          0.90866      0.25155      0.12260  1.0000
  Si          0.32962      0.25027      0.38607  1.0000
  Ge          0.90768      0.64592      0.05634  1.0000
  Si          0.72832      0.06934      0.71698  1.0000
  Si          0.64880      0.73183      0.88504  1.0000
  Si          0.07408      0.32854      0.55085  1.0000
  Si          0.24082      0.91213      0.21883  1.0000
  Si          0.96648      0.11606      0.97032  1.0000
  Si          0.86908      0.85473      0.30531  1.0000
  Si          0.13145      0.01275      0.63733  1.0000
  Si          0.01762      0.87108      0.47111  1.0000
  Si          0.10288      0.13294      0.80241  1.0000
  Si          0.83753      0.96517      0.13734  1.0000
  Si          0.11039      0.97064      0.37031  1.0000
  Si          0.84211      0.86733      0.03732  1.0000
  Si          0.00605      0.12866      0.70233  1.0000
  Si          0.86406      0.01822      0.87030  1.0000
  Si          0.13824      0.11231      0.53653  1.0000
  Si          0.96163      0.85045      0.20523  1.0000
  O2          0.90309      0.99169      0.00382  1.0000
  O2          0.99001      0.93255      0.33793  1.0000
  O2          0.04916      0.05083      0.66971  1.0000
  O2          0.06024      0.99169      0.50382  1.0000
  O2          0.98530      0.05914      0.83750  1.0000
  O2          0.91785      0.92425      0.17014  1.0000
  O2          0.33034      0.58081      0.33994  1.0000
  O2          0.39881      0.74208      0.67137  1.0000
  O2          0.25134      0.66624      0.00746  1.0000
  O2          0.64216      0.40444      0.83330  1.0000
  O2          0.57102      0.23650      0.16878  1.0000
  O2          0.74861      0.32951      0.50198  1.0000
  O2          0.57678      0.31713      0.00018  1.0000
  O2          0.74122      0.40257      0.66770  1.0000
  O2          0.64842      0.24131      0.33627  1.0000
  O2          0.41079      0.65387      0.50566  1.0000
  O2          0.22941      0.57895      0.17434  1.0000
  O2          0.32621      0.74688      0.83886  1.0000
  O3          0.11628      0.19264      0.97336  1.0000
  O2          0.77762      0.91707      0.31105  1.0000
  O2          0.06808      0.85729      0.64201  1.0000
  O2          0.86367      0.77981      0.47723  1.0000
  O2          0.19335      0.06897      0.80863  1.0000
  O2          0.90230      0.12172      0.14250  1.0000
  O2          0.20248      0.12609      0.36563  1.0000
  O3          0.91533      0.79074      0.03428  1.0000
  O2          0.85225      0.06631      0.69659  1.0000
  O2          0.77229      0.86167      0.86515  1.0000
  O2          0.07555      0.20357      0.53041  1.0000
  O2          0.11607      0.91442      0.19901  1.0000
  O2          0.92401      0.87295      0.25487  1.0000
  O2          0.12166      0.05725      0.58708  1.0000
  O2          0.91044      0.05896      0.92075  1.0000
  O2          0.04275      0.11044      0.75277  1.0000
  O2          0.84317      0.92443      0.08689  1.0000
  O2          0.05610      0.92614      0.42056  1.0000
  O2          0.91389      0.21547      0.98213  1.0000
  O2          0.78572      0.70150      0.31748  1.0000
  O2          0.28213      0.08167      0.65001  1.0000
  O2          0.08708      0.78833      0.48259  1.0000
  O2          0.19092      0.28806      0.80977  1.0000
  O2          0.68755      0.89872      0.15173  1.0000
  O2          0.19215      0.90172      0.35763  1.0000
  O2          0.69011      0.76791      0.02551  1.0000
  O2          0.07591      0.28188      0.69016  1.0000
  O2          0.78052      0.08466      0.85591  1.0000
  O2          0.29044      0.19505      0.52505  1.0000
  O2          0.89455      0.69533      0.19787  1.0000
  O2          0.31295      0.64518      0.25661  1.0000
  O2          0.33901      0.66634      0.58774  1.0000
  O2          0.30985      0.65627      0.92180  1.0000
  O2          0.65947      0.33820      0.75103  1.0000
  O2          0.64526      0.32712      0.08584  1.0000
  O2          0.66437      0.31705      0.41990  1.0000
  O3          0.36392      0.29489      0.97455  1.0000
  O2          0.66037      0.04768      0.30748  1.0000
  O2          0.93739      0.60898      0.63918  1.0000
  O2          0.61633      0.66555      0.47586  1.0000
  O2          0.31251      0.93920      0.80813  1.0000
  O2          0.03561      0.37617      0.14255  1.0000
  O2          0.32010      0.37440      0.36846  1.0000
  O3          0.06072      0.68849      0.03309  1.0000
  O2          0.60438      0.93570      0.70016  1.0000
  O2          0.65114      0.60721      0.86509  1.0000
  O2          0.94247      0.31783      0.53178  1.0000
  O2          0.36500      0.04418      0.19951  1.0000
  O2          0.77696      0.30557      0.01620  1.0000
  O2          0.68524      0.46852      0.34824  1.0000
  O2          0.51278      0.21195      0.67984  1.0000
  O2          0.21814      0.68900      0.51441  1.0000
  O2          0.28819      0.51757      0.84768  1.0000
  O2          0.45725      0.77044      0.18334  1.0000
  O2          0.29252      0.77143      0.32780  1.0000
  O2          0.46309      0.67781      0.99144  1.0000
  O2          0.20841      0.51486      0.65940  1.0000
  O2          0.67850      0.21294      0.82430  1.0000
  O2          0.52083      0.29438      0.49323  1.0000
  O2          0.76231      0.46582      0.15996  1.0000
  O3          0.76916      0.52987      0.02681  1.0000
  O2          0.45337      0.24863      0.36570  1.0000
  O2          0.72884      0.19574      0.69648  1.0000
  O2          0.20226      0.45583      0.53202  1.0000
  O2          0.51748      0.72518      0.86944  1.0000
  O2          0.23927      0.78426      0.20041  1.0000
  O2          0.52479      0.78765      0.31116  1.0000
  O3          0.23098      0.45351      0.98083  1.0000
  O2          0.19644      0.73476      0.64194  1.0000
  O2          0.44671      0.19913      0.80723  1.0000
  O2          0.73813      0.52756      0.47562  1.0000
  O2          0.78398      0.25820      0.13820  1.0000
  O3          0.20110      0.29325      0.89439  1.0000
  O2          0.66709      0.90838      0.23657  1.0000
  O2          0.07726      0.75693      0.56738  1.0000
  O2          0.75744      0.67649      0.40257  1.0000
  O2          0.30319      0.07282      0.73457  1.0000
  O2          0.91930      0.24629      0.06866  1.0000
  O2          0.31203      0.22646      0.44026  1.0000
  O3          0.89954      0.69013      0.11325  1.0000
  O2          0.75042      0.07501      0.77107  1.0000
  O2          0.66471      0.73710      0.93898  1.0000
  O2          0.07264      0.30689      0.60506  1.0000
  O2          0.22206      0.91057      0.27307  1.0000
  O2          0.56604      0.52778      0.99282  1.0000
  O2          0.43097      0.03133      0.32758  1.0000
  O2          0.94960      0.39246      0.65960  1.0000
  O2          0.40227      0.43507      0.49576  1.0000
  O2          0.54259      0.95250      0.82692  1.0000
  O2          0.01838      0.58605      0.16248  1.0000
  O2          0.54883      0.59092      0.34804  1.0000
  O2          0.02995      0.45560      0.01482  1.0000
  O2          0.39134      0.95206      0.68006  1.0000
  O2          0.42402      0.39733      0.84516  1.0000
  O2          0.95890      0.54832      0.51188  1.0000
  O2          0.58178      0.03088      0.18072  1.0000
  O2          0.57305      0.16885      0.25311  1.0000
  O2          0.81732      0.40084      0.58512  1.0000
  O2          0.56457      0.39511      0.91725  1.0000
  O2          0.39590      0.81454      0.75453  1.0000
  O2          0.16115      0.58827      0.09039  1.0000
  O2          0.40816      0.58254      0.42252  1.0000
  F           0.44216      0.90584      0.25430  1.0000
  F           0.07901      0.53416      0.58632  1.0000
  F           0.40111      0.48809      0.92447  1.0000
  F           0.52802      0.07755      0.75334  1.0000
  F           0.90470      0.49529      0.08317  1.0000
  F           0.53655      0.44923      0.42131  1.0000
