data_cif

_audit_creation_method             'generated by GULP'

_symmetry_space_group_name_H-M     'P 1'
_symmetry_Int_Tables_number        1
_symmetry_cell_setting             triclinic

_cell_length_a                       11.9531
_cell_length_b                       11.9850
_cell_length_c                       29.4510
_cell_angle_alpha                   90.0000
_cell_angle_beta                    90.0000
_cell_angle_gamma                  119.8711

loop_
_atom_site_label
_atom_site_fract_x
_atom_site_fract_y
_atom_site_fract_z
_atom_site_occupancy
  Si          0.69960      0.37570      0.03389  1.0000
  Si          0.61768      0.31973      0.36594  1.0000
  Si          0.67092      0.29158      0.69956  1.0000
  Si          0.29092      0.61392      0.53389  1.0000
  Si          0.37284      0.66988      0.86594  1.0000
  Si          0.31960      0.69803      0.19956  1.0000
  Si          0.37471      0.69907      0.30037  1.0000
  Si          0.32318      0.62094      0.96713  1.0000
  Si          0.28997      0.67193      0.63409  1.0000
  Si          0.61580      0.29055      0.80037  1.0000
  Si          0.66734      0.36868      0.46713  1.0000
  Si          0.70055      0.31769      0.13409  1.0000
  Si          0.53256      0.41715      0.96744  1.0000
  Si          0.57920      0.10940      0.30117  1.0000
  Si          0.87922      0.46573      0.63416  1.0000
  Si          0.45796      0.57247      0.46744  1.0000
  Si          0.41132      0.88022      0.80117  1.0000
  Si          0.11130      0.52389      0.13416  1.0000
  Si          0.41233      0.52632      0.36540  1.0000
  Si          0.11290      0.57995      0.03262  1.0000
  Si          0.46409      0.88097      0.69939  1.0000
  Si          0.57819      0.46330      0.86540  1.0000
  Si          0.87761      0.40967      0.53262  1.0000
  Si          0.52643      0.10865      0.19939  1.0000
  Si          0.29587      0.39151      0.85251  1.0000
  Si          0.59788      0.89972      0.18537  1.0000
  Si          0.08857      0.68817      0.51755  1.0000
  Si          0.69465      0.59811      0.35251  1.0000
  Si          0.39264      0.08989      0.68537  1.0000
  Si          0.90194      0.30144      0.01755  1.0000
  Si          0.38851      0.29246      0.48019  1.0000
  Si          0.90220      0.59529      0.14942  1.0000
  Si          0.69178      0.08895      0.81532  1.0000
  Si          0.60201      0.69715      0.98019  1.0000
  Si          0.08831      0.39433      0.64942  1.0000
  Si          0.29874      0.90066      0.31532  1.0000
  Si          0.25378      0.34123      0.95373  1.0000
  Si          0.65566      0.90739      0.28600  1.0000
  Si          0.08013      0.74362      0.61770  1.0000
  Si          0.73673      0.64839      0.45373  1.0000
  Si          0.33486      0.08223      0.78600  1.0000
  Si          0.91039      0.24600      0.11770  1.0000
  Si          0.33607      0.24778      0.37902  1.0000
  Si          0.90966      0.65446      0.04894  1.0000
  Si          0.74261      0.08225      0.71458  1.0000
  Si          0.65445      0.74184      0.87902  1.0000
  Si          0.08086      0.33516      0.54894  1.0000
  Si          0.24791      0.90737      0.21458  1.0000
  Ge          0.97089      0.11880      0.96722  1.0000
  Si          0.87323      0.84449      0.30029  1.0000
  Si          0.14517      0.02428      0.63424  1.0000
  Ge          0.01963      0.87081      0.46722  1.0000
  Si          0.11729      0.14512      0.80029  1.0000
  Si          0.84535      0.96533      0.13424  1.0000
  Si          0.11835      0.97045      0.36434  1.0000
  Si          0.84748      0.87172      0.03338  1.0000
  Si          0.02371      0.14646      0.69937  1.0000
  Si          0.87217      0.01917      0.86434  1.0000
  Si          0.14304      0.11790      0.53338  1.0000
  Si          0.96681      0.84316      0.19937  1.0000
  O3          0.93469      0.99302      0.00306  1.0000
  O2          0.99793      0.92724      0.33090  1.0000
  O2          0.06488      0.06625      0.66668  1.0000
  O3          0.05582      0.99659      0.50306  1.0000
  O2          0.99259      0.06237      0.83090  1.0000
  O2          0.92564      0.92336      0.16668  1.0000
  O2          0.33656      0.57581      0.33279  1.0000
  O2          0.41299      0.75566      0.66688  1.0000
  O2          0.23859      0.65872      0.00033  1.0000
  O2          0.65395      0.41381      0.83279  1.0000
  O2          0.57753      0.23396      0.16688  1.0000
  O2          0.75193      0.33089      0.50033  1.0000
  O2          0.57832      0.33950      0.00060  1.0000
  O2          0.75385      0.41510      0.66691  1.0000
  O2          0.65665      0.23530      0.33325  1.0000
  O2          0.41220      0.65012      0.50060  1.0000
  O2          0.23667      0.57452      0.16691  1.0000
  O2          0.33387      0.75431      0.83325  1.0000
  O3          0.13385      0.21726      0.97536  1.0000
  O2          0.78184      0.90725      0.30620  1.0000
  O2          0.07983      0.86968      0.63780  1.0000
  O3          0.85667      0.77236      0.47536  1.0000
  O2          0.20867      0.08236      0.80620  1.0000
  O2          0.91069      0.11994      0.13780  1.0000
  O2          0.21127      0.12380      0.35746  1.0000
  O2          0.90878      0.77912      0.02876  1.0000
  O2          0.86912      0.08191      0.69472  1.0000
  O2          0.77924      0.86582      0.85746  1.0000
  O2          0.08173      0.21049      0.52876  1.0000
  O2          0.12140      0.90771      0.19472  1.0000
  O2          0.92170      0.85350      0.24932  1.0000
  O2          0.13726      0.06955      0.58424  1.0000
  O3          0.92885      0.05334      0.91413  1.0000
  O2          0.06882      0.13611      0.74932  1.0000
  O2          0.85325      0.92006      0.08424  1.0000
  O3          0.06166      0.93627      0.41413  1.0000
  O3          0.89533      0.20598      0.97795  1.0000
  O2          0.79345      0.69459      0.31433  1.0000
  O2          0.29597      0.09128      0.64705  1.0000
  O3          0.09518      0.78363      0.47795  1.0000
  O2          0.19707      0.29503      0.81433  1.0000
  O2          0.69455      0.89834      0.14705  1.0000
  O2          0.20055      0.89935      0.35386  1.0000
  O2          0.69776      0.79597      0.01833  1.0000
  O2          0.09053      0.29784      0.68766  1.0000
  O2          0.78997      0.09027      0.85386  1.0000
  O2          0.29276      0.19364      0.51833  1.0000
  O2          0.89999      0.69177      0.18766  1.0000
  O2          0.31843      0.64160      0.25007  1.0000
  O2          0.34849      0.67076      0.58414  1.0000
  O2          0.31894      0.67399      0.91649  1.0000
  O2          0.67209      0.34802      0.75007  1.0000
  O2          0.64203      0.31885      0.08414  1.0000
  O2          0.67158      0.31563      0.41649  1.0000
  O2          0.37722      0.33141      0.97075  1.0000
  O2          0.66631      0.04002      0.30426  1.0000
  O2          0.94795      0.62185      0.63668  1.0000
  O2          0.61330      0.65821      0.47075  1.0000
  O2          0.32421      0.94960      0.80426  1.0000
  O2          0.04257      0.36777      0.13668  1.0000
  O2          0.32641      0.37066      0.36127  1.0000
  O2          0.04277      0.66616      0.03035  1.0000
  O2          0.62049      0.94988      0.69610  1.0000
  O2          0.66411      0.61896      0.86127  1.0000
  O2          0.94775      0.32346      0.53035  1.0000
  O2          0.37002      0.03974      0.19610  1.0000
  O2          0.76732      0.30095      0.01139  1.0000
  O2          0.69354      0.46369      0.34440  1.0000
  O2          0.52702      0.22297      0.67763  1.0000
  O2          0.22319      0.68867      0.51139  1.0000
  O2          0.29698      0.52593      0.84440  1.0000
  O2          0.46350      0.76665      0.17763  1.0000
  O2          0.29934      0.76704      0.32288  1.0000
  O2          0.46786      0.69708      0.98826  1.0000
  O2          0.22093      0.52933      0.65681  1.0000
  O2          0.69118      0.22258      0.82288  1.0000
  O2          0.52266      0.29253      0.48826  1.0000
  O2          0.76959      0.46028      0.15681  1.0000
  O2          0.78238      0.53093      0.02946  1.0000
  O2          0.46209      0.24689      0.36003  1.0000
  O2          0.74433      0.20879      0.69484  1.0000
  O2          0.20813      0.45869      0.52946  1.0000
  O2          0.52843      0.74273      0.86003  1.0000
  O2          0.24619      0.78083      0.19484  1.0000
  O2          0.53062      0.78108      0.30547  1.0000
  O2          0.25120      0.46604      0.97294  1.0000
  O2          0.20782      0.74636      0.63720  1.0000
  O2          0.45989      0.20853      0.80547  1.0000
  O2          0.73932      0.52357      0.47294  1.0000
  O2          0.78269      0.24326      0.13720  1.0000
  O2          0.22647      0.31984      0.89944  1.0000
  O2          0.67296      0.90475      0.23171  1.0000
  O2          0.08017      0.76116      0.56309  1.0000
  O2          0.76405      0.66978      0.39944  1.0000
  O2          0.31756      0.08487      0.73171  1.0000
  O2          0.91035      0.22845      0.06309  1.0000
  O2          0.31583      0.22393      0.43328  1.0000
  O2          0.90749      0.67075      0.10327  1.0000
  O2          0.76191      0.08406      0.76892  1.0000
  O2          0.67469      0.76569      0.93328  1.0000
  O2          0.08303      0.31887      0.60327  1.0000
  O2          0.22861      0.90556      0.26892  1.0000
  O2          0.59092      0.55945      0.98945  1.0000
  O2          0.43814      0.02552      0.32441  1.0000
  O2          0.96307      0.40902      0.65786  1.0000
  O2          0.39959      0.43017      0.48945  1.0000
  O2          0.55238      0.96409      0.82441  1.0000
  O2          0.02745      0.58059      0.15786  1.0000
  O2          0.55568      0.58588      0.34373  1.0000
  O2          0.02845      0.44008      0.00886  1.0000
  O2          0.40649      0.96467      0.67640  1.0000
  O2          0.43483      0.40373      0.84373  1.0000
  O2          0.96207      0.54954      0.50886  1.0000
  O2          0.58403      0.02495      0.17640  1.0000
  O2          0.57885      0.16192      0.25026  1.0000
  O2          0.82517      0.41174      0.58345  1.0000
  O2          0.58383      0.41451      0.91648  1.0000
  O2          0.41167      0.82770      0.75026  1.0000
  O2          0.16535      0.57788      0.08345  1.0000
  O2          0.40669      0.57511      0.41648  1.0000
  F           0.44823      0.90086      0.25035  1.0000
  F           0.08689      0.54329      0.58332  1.0000
  F           0.44955      0.54425      0.91641  1.0000
  F           0.54228      0.08875      0.75035  1.0000
  F           0.90363      0.44633      0.08332  1.0000
  F           0.54097      0.44537      0.41641  1.0000
