data_cif

_audit_creation_method             'generated by GULP'

_symmetry_space_group_name_H-M     'P 1'
_symmetry_Int_Tables_number        1
_symmetry_cell_setting             triclinic

_cell_length_a                       11.9994
_cell_length_b                       11.9472
_cell_length_c                       29.5016
_cell_angle_alpha                   89.6620
_cell_angle_beta                    89.9866
_cell_angle_gamma                  120.2049

loop_
_atom_site_label
_atom_site_fract_x
_atom_site_fract_y
_atom_site_fract_z
_atom_site_occupancy
  Si          0.69960      0.37570      0.03389  1.0000
  Si          0.60326      0.31691      0.36618  1.0000
  Si          0.65341      0.27999      0.69791  1.0000
  Si          0.27884      0.61025      0.53289  1.0000
  Si          0.34905      0.65732      0.86682  1.0000
  Si          0.30901      0.69726      0.20166  1.0000
  Si          0.36354      0.69804      0.30206  1.0000
  Si          0.30422      0.61375      0.97031  1.0000
  Si          0.27483      0.66108      0.63352  1.0000
  Si          0.59649      0.28197      0.79794  1.0000
  Si          0.65784      0.36846      0.46669  1.0000
  Si          0.69152      0.31720      0.13417  1.0000
  Si          0.51722      0.39858      0.96877  1.0000
  Si          0.56717      0.10842      0.30108  1.0000
  Si          0.86426      0.45278      0.63251  1.0000
  Si          0.45293      0.57446      0.46850  1.0000
  Si          0.39311      0.86978      0.80062  1.0000
  Si          0.10028      0.52630      0.13673  1.0000
  Si          0.40078      0.52474      0.36696  1.0000
  Si          0.10509      0.58654      0.03565  1.0000
  Si          0.44588      0.86869      0.69928  1.0000
  Si          0.55614      0.44767      0.86480  1.0000
  Si          0.86759      0.40390      0.53097  1.0000
  Si          0.51549      0.10758      0.19952  1.0000
  Si          0.27064      0.37547      0.84963  1.0000
  Si          0.58729      0.89839      0.18646  1.0000
  Si          0.07772      0.68639      0.51736  1.0000
  Si          0.68093      0.59663      0.35210  1.0000
  Si          0.37455      0.07779      0.68324  1.0000
  Si          0.90284      0.30301      0.01871  1.0000
  Si          0.38088      0.29256      0.48203  1.0000
  Si          0.89053      0.59595      0.15037  1.0000
  Si          0.67292      0.08108      0.81491  1.0000
  Si          0.58744      0.68612      0.98185  1.0000
  Si          0.07235      0.38138      0.64708  1.0000
  Si          0.28640      0.89900      0.31575  1.0000
  Ge          0.25320      0.34664      0.94989  1.0000
  Si          0.64499      0.90725      0.28699  1.0000
  Si          0.06658      0.73271      0.61793  1.0000
  Si          0.73066      0.65088      0.45271  1.0000
  Si          0.31687      0.07119      0.78374  1.0000
  Si          0.90141      0.24682      0.11957  1.0000
  Si          0.32280      0.24467      0.38160  1.0000
  Si          0.90130      0.65878      0.05014  1.0000
  Si          0.72510      0.07033      0.71472  1.0000
  Si          0.63632      0.73078      0.87927  1.0000
  Si          0.06874      0.32715      0.54657  1.0000
  Si          0.23615      0.90625      0.21516  1.0000
  Si          0.96935      0.12065      0.96887  1.0000
  Si          0.86243      0.84531      0.30091  1.0000
  Si          0.12742      0.01231      0.63256  1.0000
  Si          0.01094      0.86778      0.46678  1.0000
  Si          0.10015      0.13317      0.79746  1.0000
  Si          0.83361      0.96384      0.13484  1.0000
  Si          0.10478      0.96449      0.36600  1.0000
  Si          0.83432      0.87252      0.03366  1.0000
  Si          0.00376      0.13133      0.69738  1.0000
  Ge          0.85813      0.01818      0.86702  1.0000
  Si          0.13209      0.11025      0.53189  1.0000
  Si          0.95611      0.84342      0.20023  1.0000
  O2          0.91318      0.99667      0.00258  1.0000
  O2          0.98491      0.92452      0.33297  1.0000
  O2          0.04502      0.05274      0.66415  1.0000
  O2          0.05374      0.98999      0.49889  1.0000
  O3          0.98223      0.05339      0.83047  1.0000
  O2          0.91483      0.92185      0.16659  1.0000
  O2          0.32425      0.57442      0.33502  1.0000
  O2          0.39651      0.74327      0.66694  1.0000
  O2          0.23186      0.66647      0.00339  1.0000
  O2          0.63330      0.40410      0.83086  1.0000
  O2          0.56655      0.23250      0.16632  1.0000
  O2          0.74253      0.32824      0.49858  1.0000
  O2          0.58015      0.33329      0.99960  1.0000
  O2          0.73788      0.40244      0.66460  1.0000
  O2          0.64292      0.23441      0.33321  1.0000
  O2          0.40372      0.65027      0.50100  1.0000
  O2          0.22423      0.57328      0.16953  1.0000
  O2          0.31521      0.74484      0.83392  1.0000
  O3          0.11860      0.20246      0.97295  1.0000
  O2          0.77208      0.90885      0.30681  1.0000
  O2          0.06440      0.85767      0.63811  1.0000
  O2          0.85703      0.77661      0.47297  1.0000
  O2          0.19132      0.07058      0.80360  1.0000
  O2          0.89986      0.11897      0.13937  1.0000
  O2          0.19580      0.11952      0.36142  1.0000
  O2          0.90057      0.78425      0.02943  1.0000
  O2          0.84919      0.06815      0.69389  1.0000
  O3          0.75622      0.85309      0.85750  1.0000
  O2          0.06914      0.20137      0.52640  1.0000
  O2          0.11049      0.90700      0.19518  1.0000
  O2          0.91463      0.85841      0.25026  1.0000
  O2          0.11663      0.05406      0.58211  1.0000
  O3          0.91427      0.05425      0.92043  1.0000
  O2          0.04557      0.11611      0.74711  1.0000
  O2          0.83802      0.91931      0.08443  1.0000
  O2          0.04916      0.92053      0.41611  1.0000
  O2          0.90548      0.21051      0.97953  1.0000
  O2          0.77929      0.69331      0.31350  1.0000
  O2          0.27870      0.08103      0.64507  1.0000
  O2          0.08056      0.78575      0.47894  1.0000
  O2          0.18244      0.28691      0.80769  1.0000
  O2          0.68321      0.89587      0.14832  1.0000
  O2          0.18776      0.89638      0.35402  1.0000
  O2          0.68425      0.78526      0.01931  1.0000
  O2          0.07268      0.28358      0.68544  1.0000
  O3          0.76898      0.09061      0.85442  1.0000
  O2          0.28412      0.19338      0.52054  1.0000
  O2          0.88743      0.69092      0.18906  1.0000
  O2          0.30724      0.63964      0.25206  1.0000
  O2          0.33406      0.66471      0.58342  1.0000
  O2          0.29997      0.65990      0.91795  1.0000
  O2          0.65359      0.33945      0.74763  1.0000
  O2          0.63685      0.31788      0.08366  1.0000
  O2          0.65855      0.31347      0.41635  1.0000
  O3          0.36597      0.30977      0.97494  1.0000
  O2          0.65488      0.04019      0.30472  1.0000
  O2          0.93340      0.60944      0.63595  1.0000
  O2          0.60924      0.66145      0.47153  1.0000
  O2          0.30679      0.93924      0.80337  1.0000
  O2          0.03145      0.36934      0.13933  1.0000
  O2          0.31309      0.36803      0.36380  1.0000
  O2          0.03650      0.67391      0.03292  1.0000
  O2          0.60202      0.93728      0.69693  1.0000
  O2          0.64013      0.60395      0.86320  1.0000
  O2          0.93668      0.31685      0.52799  1.0000
  O2          0.35934      0.03912      0.19660  1.0000
  O2          0.76815      0.30136      0.01201  1.0000
  O2          0.67912      0.46175      0.34439  1.0000
  O2          0.51024      0.21098      0.67576  1.0000
  O2          0.21163      0.68628      0.51046  1.0000
  O2          0.27357      0.51326      0.84544  1.0000
  O2          0.45239      0.76451      0.17936  1.0000
  O2          0.28766      0.76552      0.32399  1.0000
  O2          0.45279      0.68431      0.98805  1.0000
  O2          0.20546      0.51617      0.65535  1.0000
  O2          0.67078      0.21452      0.82077  1.0000
  O2          0.51475      0.29270      0.48941  1.0000
  O2          0.75786      0.45956      0.15742  1.0000
  O2          0.77756      0.53275      0.02941  1.0000
  O2          0.44734      0.24349      0.36160  1.0000
  O2          0.72683      0.19733      0.69484  1.0000
  O2          0.19603      0.45387      0.52761  1.0000
  O2          0.50297      0.71967      0.86355  1.0000
  O2          0.23555      0.77966      0.19619  1.0000
  O2          0.51962      0.78048      0.30703  1.0000
  O3          0.22512      0.46094      0.97800  1.0000
  O2          0.19267      0.73481      0.63808  1.0000
  O2          0.44073      0.20003      0.80266  1.0000
  O2          0.73216      0.52492      0.47191  1.0000
  O2          0.77289      0.24251      0.13835  1.0000
  O3          0.19431      0.29532      0.89343  1.0000
  O2          0.66194      0.90399      0.23281  1.0000
  O2          0.07124      0.75478      0.56373  1.0000
  O2          0.75065      0.67042      0.39847  1.0000
  O2          0.29964      0.07197      0.72950  1.0000
  O2          0.90659      0.23257      0.06536  1.0000
  O2          0.30556      0.22301      0.43585  1.0000
  O2          0.89541      0.67328      0.10439  1.0000
  O2          0.74510      0.07358      0.76917  1.0000
  O2          0.65282      0.74894      0.93354  1.0000
  O2          0.06905      0.30771      0.60080  1.0000
  O2          0.21666      0.90385      0.26942  1.0000
  O2          0.57043      0.54478      0.98837  1.0000
  O2          0.42580      0.02499      0.32438  1.0000
  O2          0.94638      0.39389      0.65581  1.0000
  O2          0.39500      0.43200      0.49139  1.0000
  O2          0.53437      0.95210      0.82375  1.0000
  O2          0.01624      0.58328      0.15964  1.0000
  O2          0.54186      0.58287      0.34365  1.0000
  O2          0.02323      0.44717      0.01139  1.0000
  O2          0.38949      0.95259      0.67538  1.0000
  O2          0.41381      0.39446      0.84388  1.0000
  O2          0.95283      0.54642      0.50820  1.0000
  O2          0.57291      0.02346      0.17707  1.0000
  O2          0.56816      0.16170      0.25014  1.0000
  O2          0.81269      0.40148      0.58163  1.0000
  O2          0.55860      0.39711      0.91569  1.0000
  O2          0.39161      0.81477      0.75015  1.0000
  O2          0.15638      0.58316      0.08638  1.0000
  O2          0.40076      0.57656      0.41783  1.0000
  F           0.43710      0.89927      0.25141  1.0000
  F           0.07421      0.53350      0.58276  1.0000
  F           0.39560      0.49298      0.92183  1.0000
  F           0.52390      0.07674      0.74995  1.0000
  F           0.89486      0.45143      0.08549  1.0000
  F           0.53012      0.44445      0.41750  1.0000
