data_cif

_audit_creation_method             'generated by GULP'

_symmetry_space_group_name_H-M     'P 1'
_symmetry_Int_Tables_number        1
_symmetry_cell_setting             triclinic

_cell_length_a                       11.9683
_cell_length_b                       11.9682
_cell_length_c                       29.4491
_cell_angle_alpha                   90.0773
_cell_angle_beta                    90.0770
_cell_angle_gamma                  119.9112

loop_
_atom_site_label
_atom_site_fract_x
_atom_site_fract_y
_atom_site_fract_z
_atom_site_occupancy
  Si          0.69960      0.37570      0.03389  1.0000
  Si          0.61497      0.31917      0.36596  1.0000
  Si          0.67208      0.28903      0.69851  1.0000
  Si          0.29131      0.61583      0.53202  1.0000
  Si          0.36630      0.66626      0.86541  1.0000
  Si          0.31864      0.69714      0.19964  1.0000
  Si          0.37364      0.69816      0.30051  1.0000
  Si          0.32321      0.62317      0.96712  1.0000
  Si          0.29232      0.67083      0.63288  1.0000
  Si          0.61374      0.28985      0.79864  1.0000
  Si          0.67030      0.37450      0.46657  1.0000
  Si          0.70044      0.31738      0.13401  1.0000
  Si          0.53262      0.41778      0.96741  1.0000
  Si          0.57764      0.10854      0.30123  1.0000
  Si          0.88074      0.46345      0.63311  1.0000
  Si          0.46393      0.57829      0.46714  1.0000
  Si          0.40858      0.87636      0.79995  1.0000
  Si          0.11031      0.52341      0.13407  1.0000
  Si          0.41118      0.52554      0.36538  1.0000
  Si          0.11311      0.58089      0.03258  1.0000
  Si          0.46606      0.87916      0.69846  1.0000
  Si          0.57168      0.45685      0.86512  1.0000
  Si          0.88094      0.41184      0.53129  1.0000
  Si          0.52602      0.10873      0.19942  1.0000
  Si          0.28970      0.38676      0.85376  1.0000
  Si          0.59652      0.89892      0.18586  1.0000
  Si          0.08954      0.69210      0.51737  1.0000
  Si          0.69171      0.59700      0.35126  1.0000
  Si          0.39366      0.08729      0.68283  1.0000
  Si          0.90172      0.30189      0.01709  1.0000
  Si          0.39247      0.29777      0.48126  1.0000
  Si          0.90218      0.59580      0.14970  1.0000
  Si          0.68758      0.08775      0.81544  1.0000
  Si          0.60272      0.69977      0.97876  1.0000
  Si          0.09055      0.39295      0.64667  1.0000
  Si          0.29737      0.89993      0.31516  1.0000
  Si          0.25371      0.34265      0.95535  1.0000
  Si          0.65476      0.90670      0.28645  1.0000
  Si          0.08218      0.74188      0.61817  1.0000
  Si          0.74253      0.65552      0.45200  1.0000
  Si          0.33476      0.07975      0.78334  1.0000
  Si          0.90944      0.24513      0.11721  1.0000
  Si          0.33395      0.24695      0.38053  1.0000
  Si          0.90971      0.65469      0.04919  1.0000
  Si          0.74434      0.08004      0.71532  1.0000
  Si          0.64682      0.73576      0.87717  1.0000
  Si          0.08277      0.33472      0.54608  1.0000
  Si          0.24759      0.90729      0.21436  1.0000
  Ge          0.97363      0.11953      0.96881  1.0000
  Si          0.87272      0.84431      0.30087  1.0000
  Si          0.14546      0.02227      0.63248  1.0000
  Si          0.02262      0.87296      0.46668  1.0000
  Si          0.11792      0.14230      0.79854  1.0000
  Si          0.84340      0.96356      0.13486  1.0000
  Si          0.11651      0.96685      0.36584  1.0000
  Si          0.84717      0.87154      0.03398  1.0000
  Si          0.02590      0.14608      0.69767  1.0000
  Ge          0.86994      0.01585      0.86372  1.0000
  Si          0.14516      0.11675      0.53165  1.0000
  Si          0.96720      0.84401      0.20005  1.0000
  O3          0.93787      0.99725      0.00642  1.0000
  O2          0.99443      0.92447      0.33341  1.0000
  O2          0.06533      0.06508      0.66452  1.0000
  O2          0.06501      0.99505      0.49911  1.0000
  O3          0.99221      0.05161      0.82611  1.0000
  O2          0.92439      0.92413      0.16801  1.0000
  O2          0.33466      0.57473      0.33300  1.0000
  O2          0.41606      0.75401      0.66561  1.0000
  O2          0.23905      0.66101      0.00055  1.0000
  O2          0.64889      0.41106      0.83181  1.0000
  O2          0.57772      0.23407      0.16686  1.0000
  O2          0.75504      0.33547      0.49903  1.0000
  O2          0.57841      0.34056      0.00071  1.0000
  O2          0.75540      0.41175      0.66567  1.0000
  O2          0.65400      0.23443      0.33350  1.0000
  O2          0.41474      0.65481      0.49953  1.0000
  O2          0.23546      0.57341      0.16692  1.0000
  O2          0.32846      0.75042      0.83198  1.0000
  O3          0.13580      0.22050      0.97836  1.0000
  O2          0.78164      0.90751      0.30641  1.0000
  O2          0.08156      0.86812      0.63812  1.0000
  O2          0.86850      0.78234      0.47199  1.0000
  O2          0.21087      0.08159      0.80392  1.0000
  O2          0.90960      0.11866      0.13701  1.0000
  O2          0.20714      0.12097      0.36054  1.0000
  O2          0.90787      0.77858      0.02861  1.0000
  O2          0.87080      0.07988      0.69552  1.0000
  O3          0.76896      0.85367      0.85417  1.0000
  O2          0.08197      0.20783      0.52612  1.0000
  O2          0.12135      0.90791      0.19441  1.0000
  O2          0.92656      0.85677      0.25052  1.0000
  O2          0.13270      0.06291      0.58201  1.0000
  O1          0.93744      0.05204      0.91626  1.0000
  O2          0.07774      0.14201      0.74690  1.0000
  O2          0.84747      0.91173      0.08563  1.0000
  O2          0.06331      0.92616      0.41626  1.0000
  O3          0.89627      0.20657      0.97749  1.0000
  O2          0.79010      0.69294      0.31290  1.0000
  O2          0.29728      0.08970      0.64438  1.0000
  O2          0.09152      0.79040      0.47898  1.0000
  O2          0.18957      0.28976      0.81610  1.0000
  O2          0.69314      0.89759      0.14773  1.0000
  O2          0.19907      0.89795      0.35355  1.0000
  O2          0.69972      0.79990      0.01642  1.0000
  O2          0.09188      0.29634      0.68480  1.0000
  O3          0.78289      0.09321      0.85504  1.0000
  O2          0.29654      0.19937      0.51962  1.0000
  O2          0.89977      0.69218      0.18814  1.0000
  O2          0.31766      0.64066      0.25010  1.0000
  O2          0.34881      0.67182      0.58242  1.0000
  O2          0.31584      0.67363      0.91626  1.0000
  O2          0.67131      0.34758      0.74853  1.0000
  O2          0.64189      0.31814      0.08400  1.0000
  O2          0.67139      0.31808      0.41626  1.0000
  O2          0.37773      0.33352      0.97179  1.0000
  O2          0.66501      0.03955      0.30458  1.0000
  O2          0.94969      0.61973      0.63655  1.0000
  O2          0.62012      0.66564      0.47031  1.0000
  O2          0.32257      0.94677      0.80201  1.0000
  O2          0.04156      0.36703      0.13634  1.0000
  O2          0.32383      0.36935      0.36221  1.0000
  O2          0.04270      0.66689      0.03051  1.0000
  O2          0.62244      0.94792      0.69619  1.0000
  O2          0.65595      0.61174      0.86074  1.0000
  O2          0.94993      0.32447      0.52794  1.0000
  O2          0.36974      0.03977      0.19597  1.0000
  O2          0.76709      0.30120      0.01091  1.0000
  O2          0.69036      0.46230      0.34365  1.0000
  O2          0.52905      0.21986      0.67580  1.0000
  O2          0.22318      0.69133      0.50986  1.0000
  O2          0.28956      0.52059      0.84510  1.0000
  O2          0.46232      0.76566      0.17778  1.0000
  O2          0.29815      0.76629      0.32267  1.0000
  O2          0.46888      0.69991      0.98743  1.0000
  O2          0.22381      0.52716      0.65474  1.0000
  O2          0.68825      0.22237      0.82161  1.0000
  O2          0.52717      0.29911      0.48888  1.0000
  O2          0.76961      0.46041      0.15672  1.0000
  O2          0.78216      0.53111      0.02976  1.0000
  O2          0.45897      0.24540      0.36091  1.0000
  O2          0.74690      0.20729      0.69562  1.0000
  O2          0.20903      0.45994      0.52665  1.0000
  O2          0.52087      0.73753      0.85864  1.0000
  O2          0.24560      0.78030      0.19474  1.0000
  O2          0.52954      0.78045      0.30587  1.0000
  O2          0.25195      0.46859      0.97389  1.0000
  O2          0.20917      0.74387      0.63779  1.0000
  O2          0.45833      0.20731      0.80277  1.0000
  O2          0.74407      0.53051      0.47161  1.0000
  O2          0.78219      0.24256      0.13690  1.0000
  O2          0.22192      0.31752      0.90121  1.0000
  O2          0.67162      0.90363      0.23218  1.0000
  O2          0.08415      0.76155      0.56386  1.0000
  O2          0.76174      0.67218      0.39766  1.0000
  O2          0.31795      0.08137      0.72898  1.0000
  O2          0.90946      0.22810      0.06256  1.0000
  O2          0.31729      0.22774      0.43487  1.0000
  O2          0.90810      0.67151      0.10354  1.0000
  O2          0.76136      0.08002      0.76997  1.0000
  O2          0.67196      0.76755      0.93132  1.0000
  O2          0.08584      0.31786      0.60035  1.0000
  O2          0.22792      0.90532      0.26867  1.0000
  O2          0.59344      0.56250      0.98792  1.0000
  O2          0.43658      0.02504      0.32431  1.0000
  O2          0.96485      0.40604      0.65586  1.0000
  O2          0.40656      0.43719      0.49024  1.0000
  O2          0.54848      0.96129      0.82395  1.0000
  O2          0.02691      0.58034      0.15796  1.0000
  O2          0.55229      0.58291      0.34229  1.0000
  O2          0.02818      0.44098      0.00858  1.0000
  O2          0.40913      0.96257      0.67456  1.0000
  O2          0.42697      0.39603      0.84461  1.0000
  O2          0.96443      0.55289      0.50822  1.0000
  O2          0.58343      0.02462      0.17667  1.0000
  O2          0.57801      0.16181      0.25039  1.0000
  O2          0.82766      0.41147      0.58214  1.0000
  O2          0.57969      0.40979      0.91626  1.0000
  O2          0.41141      0.82470      0.74904  1.0000
  O2          0.16477      0.57806      0.08349  1.0000
  O2          0.41099      0.57849      0.41626  1.0000
  F           0.44764      0.90043      0.25033  1.0000
  F           0.08905      0.54183      0.58219  1.0000
  F           0.44648      0.54299      0.91626  1.0000
  F           0.54344      0.08631      0.74942  1.0000
  F           0.90316      0.44601      0.08311  1.0000
  F           0.54183      0.44764      0.41626  1.0000
