data_cif

_audit_creation_method             'generated by GULP'

_symmetry_space_group_name_H-M     'P 1'
_symmetry_Int_Tables_number        1
_symmetry_cell_setting             triclinic

_cell_length_a                       12.0922
_cell_length_b                       11.9492
_cell_length_c                       29.5470
_cell_angle_alpha                   89.3641
_cell_angle_beta                    89.8280
_cell_angle_gamma                  120.3203

loop_
_atom_site_label
_atom_site_fract_x
_atom_site_fract_y
_atom_site_fract_z
_atom_site_occupancy
  Si          0.69960      0.37570      0.03389  1.0000
  Si          0.62637      0.32760      0.36452  1.0000
  Ge          0.66585      0.27557      0.70610  1.0000
  Si          0.31178      0.63140      0.52808  1.0000
  Si          0.38785      0.67354      0.86475  1.0000
  Si          0.32239      0.69115      0.19649  1.0000
  Ge          0.39079      0.72095      0.29456  1.0000
  Si          0.32296      0.62253      0.96487  1.0000
  Si          0.31587      0.68121      0.63105  1.0000
  Si          0.62660      0.30140      0.80384  1.0000
  Si          0.67894      0.37630      0.46463  1.0000
  Si          0.71043      0.32333      0.13380  1.0000
  Si          0.52223      0.41307      0.97294  1.0000
  Si          0.58753      0.11174      0.30244  1.0000
  Ge          0.87919      0.45006      0.63595  1.0000
  Si          0.48066      0.58571      0.46403  1.0000
  Si          0.42750      0.88291      0.79702  1.0000
  Si          0.11673      0.53281      0.12827  1.0000
  Si          0.42952      0.54399      0.36174  1.0000
  Si          0.10875      0.58436      0.02695  1.0000
  Si          0.48831      0.88832      0.69478  1.0000
  Si          0.58284      0.46335      0.87182  1.0000
  Si          0.88537      0.41171      0.52926  1.0000
  Si          0.53599      0.11134      0.19958  1.0000
  Si          0.30702      0.39204      0.85383  1.0000
  Si          0.60730      0.89778      0.18606  1.0000
  Ge          0.10342      0.70481      0.51198  1.0000
  Si          0.70802      0.60792      0.34979  1.0000
  Si          0.40153      0.09281      0.67833  1.0000
  Si          0.89908      0.30138      0.01566  1.0000
  Si          0.40293      0.30149      0.47895  1.0000
  Si          0.91077      0.60356      0.14564  1.0000
  Si          0.71041      0.09850      0.81217  1.0000
  Si          0.59577      0.69597      0.98329  1.0000
  Si          0.10919      0.39578      0.64642  1.0000
  Si          0.29967      0.90086      0.31794  1.0000
  Si          0.24821      0.33852      0.95449  1.0000
  Si          0.67250      0.91211      0.28823  1.0000
  Ge          0.09246      0.72375      0.61320  1.0000
  Si          0.75675      0.66044      0.45026  1.0000
  Si          0.34488      0.08355      0.78167  1.0000
  Si          0.91524      0.25160      0.11596  1.0000
  Si          0.35034      0.26162      0.37837  1.0000
  Si          0.90850      0.65916      0.04504  1.0000
  Si          0.77009      0.09443      0.71004  1.0000
  Si          0.66439      0.74532      0.88309  1.0000
  Si          0.09405      0.34254      0.54350  1.0000
  Si          0.25495      0.90796      0.21469  1.0000
  Si          0.96691      0.12211      0.96630  1.0000
  Si          0.89172      0.85793      0.29754  1.0000
  Ge          0.14623      0.00955      0.63011  1.0000
  Si          0.03357      0.88560      0.46188  1.0000
  Si          0.12968      0.14593      0.80088  1.0000
  Si          0.85491      0.97096      0.13274  1.0000
  Si          0.12801      0.98619      0.36304  1.0000
  Si          0.84286      0.87541      0.03180  1.0000
  Si          0.04508      0.14815      0.69915  1.0000
  Si          0.88510      0.02584      0.86530  1.0000
  Si          0.15259      0.12313      0.52918  1.0000
  Si          0.97975      0.85127      0.19663  1.0000
  O2          0.92000      0.99764      0.99856  1.0000
  O2          0.01849      0.94265      0.32590  1.0000
  O3          0.08295      0.06156      0.67222  1.0000
  O2          0.07412      0.00250      0.49638  1.0000
  O2          0.00777      0.06239      0.83386  1.0000
  O2          0.94121      0.93267      0.16304  1.0000
  O3          0.35217      0.58640      0.33042  1.0000
  O2          0.44188      0.76266      0.66300  1.0000
  O2          0.23349      0.66153      0.99405  1.0000
  O2          0.65656      0.40708      0.84278  1.0000
  O2          0.58899      0.23843      0.16747  1.0000
  O2          0.76129      0.33424      0.49647  1.0000
  O2          0.57064      0.33621      0.00542  1.0000
  O1          0.75403      0.40732      0.67044  1.0000
  O2          0.66276      0.24033      0.33247  1.0000
  O2          0.43444      0.66231      0.49706  1.0000
  O2          0.24476      0.58394      0.15810  1.0000
  O2          0.35294      0.75683      0.82979  1.0000
  O2          0.11912      0.21334      0.97426  1.0000
  O2          0.80904      0.92874      0.30316  1.0000
  O1          0.07966      0.85318      0.63764  1.0000
  O2          0.88165      0.78538      0.47078  1.0000
  O2          0.21847      0.08001      0.80260  1.0000
  O2          0.91798      0.12606      0.13603  1.0000
  O2          0.22247      0.14002      0.35727  1.0000
  O2          0.90484      0.78431      0.02513  1.0000
  O2          0.89186      0.08410      0.69367  1.0000
  O2          0.79347      0.87031      0.86322  1.0000
  O2          0.09832      0.22178      0.52169  1.0000
  O2          0.13338      0.91212      0.19342  1.0000
  O2          0.93485      0.86225      0.24604  1.0000
  O3          0.12683      0.07297      0.57980  1.0000
  O2          0.93549      0.07362      0.91534  1.0000
  O2          0.07906      0.14733      0.75168  1.0000
  O2          0.85928      0.92718      0.08227  1.0000
  O2          0.06000      0.94732      0.41164  1.0000
  O2          0.89642      0.20337      0.97730  1.0000
  O2          0.80936      0.70715      0.31192  1.0000
  O3          0.31028      0.08267      0.63855  1.0000
  O3          0.10583      0.80666      0.46808  1.0000
  O2          0.21311      0.29523      0.81574  1.0000
  O2          0.70629      0.90144      0.14803  1.0000
  O2          0.20974      0.91518      0.35516  1.0000
  O2          0.69122      0.79407      0.02144  1.0000
  O2          0.11964      0.29849      0.68260  1.0000
  O2          0.80407      0.09326      0.85033  1.0000
  O2          0.30462      0.20198      0.51738  1.0000
  O2          0.91135      0.69996      0.18394  1.0000
  O3          0.31400      0.62627      0.24424  1.0000
  O2          0.36293      0.68503      0.57877  1.0000
  O2          0.32762      0.67762      0.91374  1.0000
  O3          0.68562      0.36934      0.75690  1.0000
  O2          0.64805      0.32030      0.08484  1.0000
  O2          0.67950      0.32048      0.41446  1.0000
  O2          0.36644      0.32646      0.97499  1.0000
  O2          0.67504      0.04448      0.30357  1.0000
  O1          0.94888      0.61482      0.63772  1.0000
  O2          0.63542      0.66982      0.46869  1.0000
  O2          0.34337      0.95364      0.79949  1.0000
  O2          0.04753      0.37569      0.13259  1.0000
  O2          0.34359      0.38573      0.36121  1.0000
  O2          0.03939      0.67097      0.02503  1.0000
  O2          0.64307      0.95886      0.69520  1.0000
  O2          0.67197      0.62022      0.86677  1.0000
  O2          0.96371      0.33366      0.52630  1.0000
  O2          0.38139      0.03948      0.19705  1.0000
  O2          0.76490      0.30022      0.01025  1.0000
  O2          0.70604      0.47234      0.34204  1.0000
  O3          0.52552      0.23019      0.67379  1.0000
  O3          0.24686      0.70472      0.50487  1.0000
  O2          0.31337      0.52891      0.84383  1.0000
  O2          0.47198      0.76677      0.17817  1.0000
  O3          0.29270      0.76709      0.32627  1.0000
  O2          0.46333      0.69855      0.98846  1.0000
  O2          0.24412      0.53186      0.64946  1.0000
  O2          0.69948      0.22494      0.82232  1.0000
  O2          0.53598      0.30263      0.48745  1.0000
  O2          0.77999      0.46706      0.15554  1.0000
  O2          0.78175      0.53227      0.02715  1.0000
  O2          0.47202      0.25555      0.35833  1.0000
  O3          0.77419      0.21700      0.68842  1.0000
  O2          0.21601      0.47623      0.52680  1.0000
  O2          0.54332      0.74873      0.86160  1.0000
  O2          0.25897      0.78435      0.19594  1.0000
  O3          0.55791      0.78751      0.31028  1.0000
  O2          0.24808      0.46597      0.97189  1.0000
  O3          0.23820      0.75389      0.63876  1.0000
  O2          0.47007      0.20806      0.80135  1.0000
  O2          0.75633      0.53339      0.46972  1.0000
  O2          0.79013      0.24750      0.13751  1.0000
  O2          0.23357      0.32019      0.90040  1.0000
  O2          0.67462      0.90081      0.23308  1.0000
  O1          0.10472      0.78900      0.55804  1.0000
  O2          0.77744      0.68050      0.39602  1.0000
  O2          0.33016      0.08048      0.72751  1.0000
  O2          0.90822      0.23197      0.06180  1.0000
  O2          0.33147      0.23309      0.43242  1.0000
  O2          0.91048      0.67663      0.09922  1.0000
  O2          0.78112      0.10491      0.76532  1.0000
  O2          0.67588      0.76472      0.93726  1.0000
  O2          0.09371      0.32839      0.59773  1.0000
  O2          0.24032      0.90741      0.26882  1.0000
  O2          0.57676      0.55498      0.99494  1.0000
  O2          0.44637      0.02020      0.32382  1.0000
  O3          0.99126      0.41155      0.65826  1.0000
  O2          0.41628      0.44143      0.48667  1.0000
  O2          0.56956      0.97199      0.81680  1.0000
  O2          0.03708      0.59213      0.15244  1.0000
  O2          0.57168      0.59497      0.34003  1.0000
  O2          0.02185      0.44244      0.00496  1.0000
  O2          0.43878      0.97939      0.67358  1.0000
  O2          0.44498      0.40409      0.84740  1.0000
  O3          0.96903      0.55288      0.50607  1.0000
  O2          0.58788      0.02094      0.17972  1.0000
  O2          0.58186      0.15581      0.25068  1.0000
  O3          0.83350      0.39980      0.57973  1.0000
  O2          0.57885      0.41284      0.92320  1.0000
  O2          0.43207      0.83867      0.74593  1.0000
  O2          0.16443      0.58440      0.07691  1.0000
  O2          0.43412      0.59408      0.41348  1.0000
  F           0.44572      0.86645      0.25840  1.0000
  F           0.09510      0.58079      0.58274  1.0000
  F           0.45278      0.54631      0.91864  1.0000
  F           0.58162      0.12889      0.74111  1.0000
  F           0.90373      0.45079      0.08121  1.0000
  F           0.55891      0.45334      0.41474  1.0000
