data_cif

_audit_creation_method             'generated by GULP'

_symmetry_space_group_name_H-M     'P 1'
_symmetry_Int_Tables_number        1
_symmetry_cell_setting             triclinic

_cell_length_a                       12.1843
_cell_length_b                       12.2061
_cell_length_c                       30.1345
_cell_angle_alpha                   89.7726
_cell_angle_beta                    89.8763
_cell_angle_gamma                  119.9441

loop_
_atom_site_label
_atom_site_fract_x
_atom_site_fract_y
_atom_site_fract_z
_atom_site_occupancy
  Si          0.69960      0.37570      0.03389  1.0000
  Ge          0.61952      0.32822      0.37152  1.0000
  Si          0.67655      0.30125      0.69840  1.0000
  Ge          0.28036      0.61412      0.53954  1.0000
  Ge          0.38332      0.66895      0.86901  1.0000
  Ge          0.32587      0.70731      0.20248  1.0000
  Si          0.37331      0.69747      0.30276  1.0000
  Si          0.31993      0.62022      0.96893  1.0000
  Ge          0.29664      0.67865      0.63630  1.0000
  Ge          0.62214      0.30271      0.80050  1.0000
  Si          0.67662      0.37413      0.47093  1.0000
  Si          0.69815      0.32599      0.13482  1.0000
  Si          0.52707      0.41208      0.96969  1.0000
  Ge          0.58277      0.12103      0.30039  1.0000
  Si          0.88491      0.47052      0.63396  1.0000
  Ge          0.45894      0.58316      0.46965  1.0000
  Si          0.40920      0.88285      0.80839  1.0000
  Ge          0.11332      0.53325      0.13402  1.0000
  Si          0.41070      0.52779      0.36593  1.0000
  Si          0.11315      0.58457      0.03229  1.0000
  Ge          0.46474      0.88728      0.70656  1.0000
  Ge          0.57650      0.47517      0.86851  1.0000
  Si          0.88751      0.41484      0.53369  1.0000
  Si          0.52783      0.11942      0.19735  1.0000
  Si          0.29533      0.39174      0.85137  1.0000
  Ge          0.59890      0.90676      0.18374  1.0000
  Si          0.09475      0.69754      0.51714  1.0000
  Ge          0.69463      0.59931      0.35203  1.0000
  Si          0.39519      0.09651      0.68639  1.0000
  Ge          0.90578      0.30114      0.01794  1.0000
  Si          0.39640      0.29894      0.48285  1.0000
  Si          0.90185      0.60621      0.14798  1.0000
  Ge          0.69629      0.09339      0.81747  1.0000
  Ge          0.60237      0.69848      0.97988  1.0000
  Si          0.09391      0.39745      0.64966  1.0000
  Si          0.29817      0.90270      0.31486  1.0000
  Si          0.24975      0.33886      0.95275  1.0000
  Ge          0.65562      0.91022      0.28393  1.0000
  Si          0.08566      0.75060      0.61741  1.0000
  Ge          0.74486      0.65670      0.45318  1.0000
  Si          0.33599      0.08688      0.78760  1.0000
  Ge          0.91062      0.26061      0.11821  1.0000
  Si          0.33623      0.24892      0.38202  1.0000
  Si          0.91049      0.65996      0.04691  1.0000
  Ge          0.74230      0.08919      0.71709  1.0000
  Si          0.66731      0.75684      0.87905  1.0000
  Si          0.08816      0.33511      0.54975  1.0000
  Si          0.24879      0.91391      0.21382  1.0000
  Si          0.97140      0.11975      0.96582  1.0000
  Ge          0.87863      0.84936      0.29928  1.0000
  Si          0.15259      0.02830      0.63377  1.0000
  Ge          0.02817      0.88097      0.46830  1.0000
  Si          0.11935      0.14647      0.80150  1.0000
  Ge          0.84890      0.97374      0.13108  1.0000
  Si          0.12265      0.97270      0.36555  1.0000
  Si          0.85322      0.87925      0.03037  1.0000
  Ge          0.02604      0.14812      0.69931  1.0000
  Si          0.88290      0.03246      0.86709  1.0000
  Si          0.15268      0.12314      0.53463  1.0000
  Si          0.97180      0.85220      0.19704  1.0000
  O2          0.93235      0.99741      0.99673  1.0000
  O3          0.01038      0.93557      0.33227  1.0000
  O3          0.07499      0.06652      0.66558  1.0000
  O3          0.07453      0.00986      0.50208  1.0000
  O2          0.00030      0.07041      0.83380  1.0000
  O3          0.93650      0.92552      0.16236  1.0000
  O2          0.33205      0.57620      0.33566  1.0000
  O1          0.40853      0.75322      0.67548  1.0000
  O2          0.23611      0.65843      0.99980  1.0000
  O1          0.65818      0.42890      0.83326  1.0000
  O2          0.57256      0.24503      0.16573  1.0000
  O2          0.75975      0.33841      0.50477  1.0000
  O2          0.57522      0.34138      0.00396  1.0000
  O2          0.75854      0.42056      0.66413  1.0000
  O1          0.65842      0.23896      0.33697  1.0000
  O1          0.40819      0.65783      0.50246  1.0000
  O1          0.23639      0.57980      0.16926  1.0000
  O3          0.33445      0.76165      0.83918  1.0000
  O2          0.12373      0.21799      0.97260  1.0000
  O1          0.78457      0.91205      0.30914  1.0000
  O2          0.08468      0.87529      0.63558  1.0000
  O1          0.87209      0.78761      0.47732  1.0000
  O2          0.20960      0.08406      0.80598  1.0000
  O1          0.90879      0.12839      0.14164  1.0000
  O2          0.21158      0.12566      0.36354  1.0000
  O2          0.90544      0.77848      0.02497  1.0000
  O1          0.87063      0.08552      0.69198  1.0000
  O2          0.79108      0.88183      0.85970  1.0000
  O2          0.08409      0.20731      0.53280  1.0000
  O2          0.12507      0.91405      0.19507  1.0000
  O3          0.93276      0.86888      0.24544  1.0000
  O2          0.14988      0.07305      0.58402  1.0000
  O2          0.94165      0.06632      0.91617  1.0000
  O3          0.07279      0.13538      0.75206  1.0000
  O3          0.87669      0.93473      0.07833  1.0000
  O3          0.07075      0.93340      0.41487  1.0000
  O3          0.90246      0.19831      0.97605  1.0000
  O1          0.79333      0.69254      0.30934  1.0000
  O2          0.29996      0.09738      0.64905  1.0000
  O3          0.09690      0.79016      0.47933  1.0000
  O2          0.19817      0.29379      0.81516  1.0000
  O1          0.69143      0.90079      0.14040  1.0000
  O2          0.20179      0.90267      0.35216  1.0000
  O3          0.70520      0.80114      0.01959  1.0000
  O3          0.09571      0.30795      0.68810  1.0000
  O3          0.80203      0.09916      0.85874  1.0000
  O2          0.30025      0.20219      0.52010  1.0000
  O2          0.89944      0.70173      0.18456  1.0000
  O3          0.31811      0.64106      0.25481  1.0000
  O1          0.36966      0.68800      0.58676  1.0000
  O3          0.32106      0.67335      0.92035  1.0000
  O3          0.67936      0.35730      0.74665  1.0000
  O2          0.65101      0.32428      0.08388  1.0000
  O3          0.67970      0.31761      0.42339  1.0000
  O2          0.37225      0.33144      0.97015  1.0000
  O1          0.67375      0.05091      0.30108  1.0000
  O2          0.95694      0.62427      0.63445  1.0000
  O1          0.62152      0.67209      0.47103  1.0000
  O2          0.33088      0.95966      0.80579  1.0000
  O1          0.05179      0.37345      0.13973  1.0000
  O2          0.33051      0.37284      0.36543  1.0000
  O2          0.04010      0.66615      0.03040  1.0000
  O1          0.62348      0.94851      0.69784  1.0000
  O3          0.67935      0.63739      0.86402  1.0000
  O2          0.95999      0.33334      0.53203  1.0000
  O2          0.37302      0.04441      0.19771  1.0000
  O3          0.76412      0.30360      0.01141  1.0000
  O1          0.70467      0.46663      0.34249  1.0000
  O2          0.53011      0.22721      0.68085  1.0000
  O3          0.22419      0.70035      0.50932  1.0000
  O3          0.29540      0.52164      0.84384  1.0000
  O1          0.46562      0.76482      0.17405  1.0000
  O2          0.30260      0.77293      0.32091  1.0000
  O3          0.46038      0.69335      0.98934  1.0000
  O3          0.22220      0.52468      0.65733  1.0000
  O1          0.70212      0.23560      0.82414  1.0000
  O2          0.53026      0.30138      0.48883  1.0000
  O2          0.77059      0.47139      0.15254  1.0000
  O2          0.79056      0.52850      0.03096  1.0000
  O3          0.45531      0.24467      0.36275  1.0000
  O3          0.74999      0.22415      0.69354  1.0000
  O3          0.21337      0.44856      0.52905  1.0000
  O3          0.54519      0.75478      0.85748  1.0000
  O3          0.24710      0.79267      0.19456  1.0000
  O3          0.52457      0.77865      0.30709  1.0000
  O2          0.25796      0.46669      0.97106  1.0000
  O3          0.20683      0.75502      0.63825  1.0000
  O3          0.45823      0.20931      0.80499  1.0000
  O3          0.74672      0.52509      0.47484  1.0000
  O3          0.77473      0.25314      0.14150  1.0000
  O2          0.23733      0.32715      0.89952  1.0000
  O1          0.68937      0.90926      0.22850  1.0000
  O2          0.08655      0.76116      0.56388  1.0000
  O1          0.77772      0.68768      0.39768  1.0000
  O2          0.32966      0.08933      0.73392  1.0000
  O1          0.90510      0.21619      0.06285  1.0000
  O2          0.33078      0.23816      0.43579  1.0000
  O2          0.91006      0.67193      0.10007  1.0000
  O1          0.78095      0.09047      0.77209  1.0000
  O3          0.67853      0.77773      0.93207  1.0000
  O2          0.08595      0.32432      0.60363  1.0000
  O2          0.23814      0.90692      0.26750  1.0000
  O3          0.58462      0.55157      0.98948  1.0000
  O3          0.43289      0.02204      0.32250  1.0000
  O2          0.97432      0.42098      0.65470  1.0000
  O3          0.41438      0.43386      0.49127  1.0000
  O3          0.54729      0.96867      0.83026  1.0000
  O3          0.02127      0.59178      0.15729  1.0000
  O3          0.54636      0.58357      0.34237  1.0000
  O3          0.03460      0.44956      0.00793  1.0000
  O3          0.40897      0.97597      0.67880  1.0000
  O3          0.43136      0.40715      0.84153  1.0000
  O2          0.97413      0.55433      0.51238  1.0000
  O3          0.58380      0.04010      0.17405  1.0000
  O3          0.57913      0.17098      0.24635  1.0000
  O2          0.84227      0.41940      0.58396  1.0000
  O3          0.57804      0.41209      0.92056  1.0000
  O3          0.41024      0.83115      0.75936  1.0000
  O3          0.17063      0.59112      0.08037  1.0000
  O3          0.41205      0.57799      0.41489  1.0000
  F           0.46944      0.89288      0.24300  1.0000
  F           0.13181      0.55977      0.57919  1.0000
  F           0.46318      0.55907      0.90963  1.0000
  F           0.57243      0.08755      0.75184  1.0000
  F           0.92258      0.42757      0.08542  1.0000
  F           0.57345      0.45980      0.41032  1.0000
