data_cif

_audit_creation_method             'generated by GULP'

_symmetry_space_group_name_H-M     'P 1'
_symmetry_Int_Tables_number        1
_symmetry_cell_setting             triclinic

_cell_length_a                       11.9719
_cell_length_b                       12.0333
_cell_length_c                       29.3987
_cell_angle_alpha                   90.6136
_cell_angle_beta                    90.4403
_cell_angle_gamma                  120.3551

loop_
_atom_site_label
_atom_site_fract_x
_atom_site_fract_y
_atom_site_fract_z
_atom_site_occupancy
  Ge          0.31227      0.37570      0.44478  1.0000
  Si          0.23266      0.32618      0.77790  1.0000
  Si          0.30114      0.31721      0.11042  1.0000
  Si          0.90752      0.63073      0.93926  1.0000
  Si          0.00259      0.69767      0.27262  1.0000
  Si          0.93582      0.71283      0.60638  1.0000
  Si          0.98605      0.69933      0.70692  1.0000
  Si          0.93500      0.64657      0.37466  1.0000
  Si          0.91934      0.69384      0.04014  1.0000
  Si          0.24656      0.31371      0.21131  1.0000
  Si          0.28622      0.39068      0.87861  1.0000
  Ge          0.30427      0.31781      0.54488  1.0000
  Si          0.14864      0.43042      0.38069  1.0000
  Si          0.19329      0.10876      0.71635  1.0000
  Si          0.50930      0.48842      0.04565  1.0000
  Si          0.07604      0.59009      0.87317  1.0000
  Si          0.04288      0.90514      0.20704  1.0000
  Si          0.72473      0.54101      0.53823  1.0000
  Si          0.02472      0.52783      0.77113  1.0000
  Si          0.71350      0.59217      0.43536  1.0000
  Si          0.09441      0.90749      0.10513  1.0000
  Si          0.20941      0.48760      0.27725  1.0000
  Si          0.49850      0.42898      0.94373  1.0000
  Si          0.14045      0.11650      0.61505  1.0000
  Si          0.92414      0.41577      0.25948  1.0000
  Si          0.21756      0.91499      0.59444  1.0000
  Si          0.70592      0.70813      0.92716  1.0000
  Si          0.30701      0.60027      0.75952  1.0000
  Si          0.02226      0.11541      0.09265  1.0000
  Ge          0.50528      0.29637      0.42170  1.0000
  Si          0.00657      0.31265      0.88957  1.0000
  Si          0.50704      0.60823      0.55438  1.0000
  Si          0.32512      0.11389      0.22399  1.0000
  Ge          0.20510      0.70385      0.38319  1.0000
  Si          0.71934      0.41780      0.05713  1.0000
  Si          0.91056      0.89856      0.72672  1.0000
  Si          0.86671      0.36113      0.36091  1.0000
  Si          0.26927      0.90986      0.69597  1.0000
  Si          0.70967      0.76565      0.02822  1.0000
  Si          0.35597      0.66772      0.86042  1.0000
  Si          0.96542      0.10498      0.19343  1.0000
  Si          0.52496      0.25318      0.52586  1.0000
  Si          0.94970      0.25196      0.78870  1.0000
  Si          0.50618      0.66578      0.45175  1.0000
  Si          0.37415      0.10976      0.12275  1.0000
  Si          0.29037      0.77129      0.28757  1.0000
  Si          0.69951      0.35082      0.95633  1.0000
  Si          0.86025      0.91519      0.62631  1.0000
  Si          0.59018      0.12615      0.37272  1.0000
  Si          0.48561      0.84596      0.70933  1.0000
  Si          0.77226      0.04588      0.04160  1.0000
  Si          0.63686      0.88626      0.87597  1.0000
  Si          0.74870      0.16726      0.20658  1.0000
  Si          0.46491      0.97994      0.54188  1.0000
  Si          0.73204      0.96953      0.77500  1.0000
  Si          0.45678      0.89092      0.43843  1.0000
  Si          0.65397      0.17123      0.10602  1.0000
  Si          0.50611      0.04247      0.27097  1.0000
  Si          0.76073      0.13299      0.94084  1.0000
  Si          0.58218      0.85713      0.60811  1.0000
  O2          0.55534      0.01433      0.40857  1.0000
  O2          0.61055      0.92517      0.74144  1.0000
  O2          0.69165      0.09009      0.07247  1.0000
  O2          0.67932      0.01018      0.90801  1.0000
  O2          0.62506      0.08813      0.23732  1.0000
  O2          0.54287      0.93649      0.57495  1.0000
  O2          0.94789      0.57317      0.73725  1.0000
  O2          0.04656      0.78285      0.07173  1.0000
  O2          0.83608      0.67546      0.40276  1.0000
  O2          0.28319      0.43438      0.24548  1.0000
  O3          0.18941      0.24337      0.58652  1.0000
  O2          0.36836      0.35254      0.91255  1.0000
  O3          0.17695      0.33819      0.40914  1.0000
  O2          0.38691      0.44176      0.07910  1.0000
  O2          0.27130      0.23474      0.74925  1.0000
  O2          0.02605      0.66725      0.90477  1.0000
  O2          0.85228      0.59499      0.57037  1.0000
  O2          0.96512      0.77861      0.23829  1.0000
  O2          0.74145      0.23603      0.38081  1.0000
  O2          0.39400      0.90717      0.71652  1.0000
  O2          0.71159      0.89292      0.04827  1.0000
  O2          0.48197      0.79690      0.88047  1.0000
  O2          0.83871      0.10421      0.21313  1.0000
  O2          0.53531      0.13469      0.54774  1.0000
  O2          0.82469      0.12268      0.76833  1.0000
  O2          0.51589      0.79597      0.43372  1.0000
  O2          0.49928      0.10978      0.10192  1.0000
  O2          0.41037      0.89037      0.26142  1.0000
  O2          0.69501      0.22156      0.93695  1.0000
  O2          0.73730      0.92200      0.60645  1.0000
  O2          0.53321      0.86174      0.65808  1.0000
  O2          0.75527      0.07979      0.99069  1.0000
  O2          0.56624      0.07072      0.32136  1.0000
  O2          0.69927      0.15681      0.15554  1.0000
  O2          0.47272      0.93939      0.49101  1.0000
  O2          0.67846      0.93660      0.82549  1.0000
  O3          0.50871      0.19510      0.38009  1.0000
  O2          0.40492      0.69432      0.72091  1.0000
  O2          0.92497      0.11792      0.05421  1.0000
  O2          0.70452      0.80388      0.88899  1.0000
  O2          0.83103      0.31887      0.21973  1.0000
  O2          0.31398      0.91626      0.55580  1.0000
  O2          0.81235      0.89699      0.76509  1.0000
  O3          0.31107      0.82267      0.42468  1.0000
  O2          0.72443      0.32291      0.09505  1.0000
  O2          0.42487      0.11519      0.26226  1.0000
  O2          0.91117      0.21784      0.92819  1.0000
  O2          0.51748      0.70832      0.59357  1.0000
  O2          0.93140      0.64763      0.65533  1.0000
  O2          0.97141      0.69085      0.98925  1.0000
  O2          0.94391      0.69785      0.32224  1.0000
  O2          0.30329      0.37295      0.16146  1.0000
  O1          0.22627      0.30468      0.49484  1.0000
  O2          0.28923      0.33194      0.82885  1.0000
  O2          0.98987      0.35468      0.37816  1.0000
  O2          0.27992      0.03950      0.71766  1.0000
  O2          0.57910      0.64469      0.04796  1.0000
  O2          0.23290      0.67872      0.87691  1.0000
  O2          0.95533      0.97309      0.21105  1.0000
  O2          0.65511      0.38619      0.54104  1.0000
  O2          0.93814      0.37128      0.76884  1.0000
  O2          0.64133      0.67428      0.43712  1.0000
  O2          0.25119      0.97757      0.10325  1.0000
  O2          0.29409      0.64262      0.27208  1.0000
  O2          0.56520      0.34039      0.93932  1.0000
  O2          0.98393      0.04751      0.61017  1.0000
  O1          0.35921      0.28219      0.41322  1.0000
  O2          0.30737      0.46613      0.75373  1.0000
  O2          0.15741      0.24983      0.08710  1.0000
  O2          0.83769      0.70506      0.91816  1.0000
  O2          0.93013      0.55133      0.25229  1.0000
  O2          0.07995      0.78340      0.58502  1.0000
  O2          0.90978      0.76391      0.73107  1.0000
  O3          0.07163      0.72340      0.39929  1.0000
  O2          0.85461      0.55283      0.06337  1.0000
  O2          0.32208      0.24558      0.23304  1.0000
  O2          0.14160      0.31646      0.89946  1.0000
  O3          0.38065      0.47702      0.56542  1.0000
  O3          0.38569      0.54250      0.43067  1.0000
  O2          0.07627      0.25080      0.77095  1.0000
  O2          0.37509      0.23610      0.10445  1.0000
  O2          0.82395      0.47439      0.93533  1.0000
  O2          0.15787      0.76471      0.26964  1.0000
  O2          0.85714      0.79012      0.60398  1.0000
  O2          0.14241      0.78136      0.71291  1.0000
  O2          0.86814      0.48972      0.37784  1.0000
  O2          0.83852      0.76827      0.04628  1.0000
  O2          0.08981      0.23182      0.21460  1.0000
  O2          0.35861      0.54673      0.88243  1.0000
  O3          0.40036      0.24729      0.54716  1.0000
  O2          0.85327      0.34939      0.30597  1.0000
  O2          0.28853      0.91461      0.64155  1.0000
  O2          0.70617      0.78076      0.97381  1.0000
  O2          0.37680      0.67927      0.80604  1.0000
  O2          0.94702      0.10772      0.13904  1.0000
  O3          0.52061      0.23030      0.47216  1.0000
  O2          0.93179      0.23747      0.84313  1.0000
  O2          0.49829      0.66964      0.50706  1.0000
  O2          0.39482      0.11195      0.17719  1.0000
  O3          0.31667      0.80344      0.34011  1.0000
  O2          0.70804      0.33893      0.01072  1.0000
  O2          0.84034      0.90739      0.68073  1.0000
  O3          0.20540      0.56898      0.40523  1.0000
  O2          0.05145      0.02118      0.73833  1.0000
  O2          0.59595      0.43338      0.06784  1.0000
  O2          0.01848      0.45117      0.89700  1.0000
  O2          0.18483      0.98749      0.23114  1.0000
  O2          0.63204      0.59058      0.55759  1.0000
  O2          0.16674      0.58356      0.74915  1.0000
  O3          0.62978      0.45276      0.41255  1.0000
  O2          0.03750      0.99169      0.08254  1.0000
  O2          0.06563      0.43343      0.25585  1.0000
  O2          0.57923      0.56792      0.91961  1.0000
  O2          0.20268      0.04029      0.58876  1.0000
  O2          0.19322      0.16465      0.66660  1.0000
  O2          0.45070      0.43154      0.99512  1.0000
  O2          0.20696      0.44343      0.32879  1.0000
  O2          0.04099      0.85318      0.15561  1.0000
  O2          0.76494      0.58462      0.48623  1.0000
  O2          0.02355      0.58496      0.82153  1.0000
  F           0.06022      0.90537      0.66037  1.0000
  F           0.71225      0.56179      0.99235  1.0000
  F           0.09950      0.59693      0.33475  1.0000
  F           0.17216      0.11430      0.15868  1.0000
  F           0.46708      0.42802      0.48278  1.0000
  F           0.15659      0.45680      0.82479  1.0000
