data_cif

_audit_creation_method             'generated by GULP'

_symmetry_space_group_name_H-M     'P 1'
_symmetry_Int_Tables_number        1
_symmetry_cell_setting             triclinic

_cell_length_a                       11.9297
_cell_length_b                       12.0146
_cell_length_c                       29.4815
_cell_angle_alpha                   90.6279
_cell_angle_beta                    89.8497
_cell_angle_gamma                  119.8220

loop_
_atom_site_label
_atom_site_fract_x
_atom_site_fract_y
_atom_site_fract_z
_atom_site_occupancy
  Ge          0.31227      0.37570      0.44478  1.0000
  Si          0.22486      0.31283      0.77775  1.0000
  Si          0.28349      0.29962      0.10888  1.0000
  Si          0.89476      0.61386      0.93920  1.0000
  Si          0.97392      0.67710      0.27118  1.0000
  Si          0.93127      0.69825      0.60739  1.0000
  Si          0.98090      0.68791      0.70780  1.0000
  Ge          0.93746      0.61190      0.36948  1.0000
  Si          0.90393      0.67570      0.03964  1.0000
  Si          0.22349      0.29146      0.20922  1.0000
  Si          0.27556      0.37520      0.87811  1.0000
  Ge          0.30156      0.31162      0.54428  1.0000
  Si          0.13361      0.41443      0.37838  1.0000
  Si          0.18629      0.09742      0.71544  1.0000
  Si          0.49430      0.47296      0.04507  1.0000
  Si          0.06571      0.57394      0.87344  1.0000
  Si          0.02254      0.88498      0.20419  1.0000
  Si          0.72299      0.52492      0.54011  1.0000
  Si          0.01737      0.51489      0.77178  1.0000
  Si          0.72580      0.58056      0.43656  1.0000
  Si          0.07914      0.89001      0.10278  1.0000
  Si          0.18331      0.46391      0.27497  1.0000
  Si          0.48590      0.41451      0.94346  1.0000
  Si          0.13644      0.10605      0.61407  1.0000
  Si          0.89695      0.39377      0.26068  1.0000
  Si          0.21145      0.90079      0.59541  1.0000
  Si          0.69328      0.69253      0.92729  1.0000
  Si          0.30025      0.58736      0.75999  1.0000
  Si          0.00651      0.09871      0.09120  1.0000
  Ge          0.50534      0.29099      0.42386  1.0000
  Si          0.99524      0.29628      0.88975  1.0000
  Si          0.50753      0.59686      0.55658  1.0000
  Si          0.30251      0.09135      0.22231  1.0000
  Si          0.21055      0.70246      0.39234  1.0000
  Si          0.70439      0.40094      0.05704  1.0000
  Si          0.90481      0.88800      0.72679  1.0000
  Si          0.84699      0.33134      0.36269  1.0000
  Si          0.26268      0.89707      0.69633  1.0000
  Si          0.69440      0.74913      0.02805  1.0000
  Si          0.34644      0.65283      0.86062  1.0000
  Si          0.94374      0.08538      0.19164  1.0000
  Si          0.52002      0.24103      0.52719  1.0000
  Si          0.94132      0.23883      0.78903  1.0000
  Si          0.51890      0.65781      0.45454  1.0000
  Si          0.35640      0.09128      0.12133  1.0000
  Si          0.25959      0.74444      0.28898  1.0000
  Si          0.68739      0.33566      0.95646  1.0000
  Si          0.85747      0.90346      0.62659  1.0000
  Si          0.57441      0.10597      0.37305  1.0000
  Si          0.48012      0.83384      0.71049  1.0000
  Si          0.75729      0.02938      0.04145  1.0000
  Si          0.62567      0.87176      0.87626  1.0000
  Si          0.72363      0.14517      0.20759  1.0000
  Si          0.46130      0.96799      0.54426  1.0000
  Si          0.72436      0.95813      0.77572  1.0000
  Si          0.46437      0.87735      0.44258  1.0000
  Si          0.63739      0.15446      0.10647  1.0000
  Si          0.47993      0.01792      0.27210  1.0000
  Si          0.74787      0.11679      0.94087  1.0000
  Si          0.57954      0.84482      0.60963  1.0000
  O2          0.53717      0.99305      0.40837  1.0000
  O2          0.60274      0.91339      0.74279  1.0000
  O2          0.67894      0.07403      0.07386  1.0000
  O2          0.66643      0.99424      0.90859  1.0000
  O2          0.59933      0.05951      0.23820  1.0000
  O2          0.53896      0.92420      0.57690  1.0000
  O2          0.94166      0.56188      0.73825  1.0000
  O2          0.03197      0.76537      0.06995  1.0000
  O3          0.84768      0.65739      0.40617  1.0000
  O2          0.25858      0.41269      0.24284  1.0000
  O3          0.18325      0.23138      0.58501  1.0000
  O2          0.35778      0.33774      0.91219  1.0000
  O3          0.17782      0.33935      0.40928  1.0000
  O2          0.37013      0.42509      0.07821  1.0000
  O2          0.26373      0.22234      0.74821  1.0000
  O2          0.01444      0.65085      0.90492  1.0000
  O2          0.84926      0.57900      0.57248  1.0000
  O2          0.94383      0.75604      0.23354  1.0000
  O2          0.72872      0.19481      0.37890  1.0000
  O2          0.38733      0.89481      0.71702  1.0000
  O2          0.69637      0.87663      0.04803  1.0000
  O2          0.47091      0.78169      0.88042  1.0000
  O2          0.81612      0.08340      0.21179  1.0000
  O2          0.52886      0.12159      0.54926  1.0000
  O2          0.81647      0.11088      0.76902  1.0000
  O2          0.53464      0.79338      0.43804  1.0000
  O2          0.48331      0.09296      0.10073  1.0000
  O2          0.38380      0.86516      0.26618  1.0000
  O2          0.68323      0.20680      0.93679  1.0000
  O2          0.73427      0.90997      0.60674  1.0000
  O2          0.53128      0.85026      0.65967  1.0000
  O2          0.73939      0.06400      0.99091  1.0000
  O2          0.53588      0.04789      0.32244  1.0000
  O2          0.67533      0.13943      0.15687  1.0000
  O2          0.47369      0.92968      0.49328  1.0000
  O2          0.66997      0.92448      0.82618  1.0000
  O3          0.50481      0.18615      0.38236  1.0000
  O2          0.39980      0.68244      0.72185  1.0000
  O2          0.91008      0.10072      0.05271  1.0000
  O2          0.69334      0.78888      0.88914  1.0000
  O2          0.80224      0.29452      0.22215  1.0000
  O2          0.30959      0.90198      0.55683  1.0000
  O2          0.80585      0.88627      0.76531  1.0000
  O2          0.31381      0.79318      0.43030  1.0000
  O2          0.70820      0.30566      0.09508  1.0000
  O2          0.39917      0.09017      0.26100  1.0000
  O2          0.89856      0.19999      0.92798  1.0000
  O2          0.51570      0.69642      0.59554  1.0000
  O2          0.92739      0.63540      0.65661  1.0000
  O2          0.95700      0.67235      0.98895  1.0000
  O3          0.91662      0.68504      0.31886  1.0000
  O2          0.28300      0.35304      0.15995  1.0000
  O1          0.22497      0.30638      0.49497  1.0000
  O2          0.28032      0.31676      0.82849  1.0000
  O2          0.97659      0.33062      0.37776  1.0000
  O2          0.27273      0.02723      0.71711  1.0000
  O2          0.56343      0.62872      0.04777  1.0000
  O2          0.22195      0.66252      0.87728  1.0000
  O2          0.93485      0.95362      0.20880  1.0000
  O2          0.64915      0.37037      0.54410  1.0000
  O2          0.93081      0.35906      0.76935  1.0000
  O2          0.65235      0.66429      0.44030  1.0000
  O2          0.23590      0.95997      0.10141  1.0000
  O2          0.26498      0.61884      0.27177  1.0000
  O2          0.55357      0.32603      0.93965  1.0000
  O2          0.97986      0.03526      0.60994  1.0000
  O1          0.35957      0.27984      0.41489  1.0000
  O2          0.30069      0.45312      0.75400  1.0000
  O2          0.14053      0.23318      0.08578  1.0000
  O2          0.82534      0.68897      0.91824  1.0000
  O2          0.90106      0.52826      0.25207  1.0000
  O2          0.07583      0.76940      0.58590  1.0000
  O2          0.90447      0.75358      0.73178  1.0000
  O3          0.08392      0.71030      0.40071  1.0000
  O2          0.83896      0.53526      0.06325  1.0000
  O2          0.29799      0.22262      0.23153  1.0000
  O2          0.13075      0.30021      0.89916  1.0000
  O3          0.37971      0.46710      0.56740  1.0000
  O3          0.39329      0.54298      0.43239  1.0000
  O2          0.06878      0.23807      0.77113  1.0000
  O2          0.35748      0.21778      0.10303  1.0000
  O2          0.81177      0.45828      0.93527  1.0000
  O2          0.13115      0.74072      0.27067  1.0000
  O2          0.85403      0.77760      0.60472  1.0000
  O2          0.13680      0.76904      0.71376  1.0000
  O3          0.83367      0.44477      0.38466  1.0000
  O2          0.82275      0.75066      0.04604  1.0000
  O2          0.06694      0.21146      0.21273  1.0000
  O2          0.34827      0.53078      0.88213  1.0000
  O3          0.39272      0.23471      0.54681  1.0000
  O2          0.82901      0.32704      0.30750  1.0000
  O2          0.28289      0.90028      0.64200  1.0000
  O2          0.69182      0.76463      0.97378  1.0000
  O2          0.36817      0.66499      0.80638  1.0000
  O2          0.92851      0.08974      0.13734  1.0000
  O3          0.51996      0.22155      0.47354  1.0000
  O2          0.92240      0.22347      0.84331  1.0000
  O2          0.50247      0.66024      0.50935  1.0000
  O2          0.37465      0.09128      0.17570  1.0000
  O2          0.27692      0.76248      0.34323  1.0000
  O2          0.69549      0.32332      0.01071  1.0000
  O2          0.83541      0.89628      0.68084  1.0000
  O2          0.18411      0.55773      0.39876  1.0000
  O2          0.04437      0.01096      0.73767  1.0000
  O2          0.58020      0.41691      0.06736  1.0000
  O2          0.00738      0.43497      0.89730  1.0000
  O2          0.16284      0.96501      0.22882  1.0000
  O2          0.63207      0.57802      0.55956  1.0000
  O2          0.15995      0.57073      0.74975  1.0000
  O3          0.62834      0.44375      0.41373  1.0000
  O2          0.02394      0.97622      0.08054  1.0000
  O2          0.03924      0.41129      0.25532  1.0000
  O2          0.56730      0.55346      0.91963  1.0000
  O2          0.19786      0.02671      0.58896  1.0000
  O2          0.18715      0.15295      0.66560  1.0000
  O2          0.43701      0.41766      0.99472  1.0000
  O2          0.18409      0.42080      0.32625  1.0000
  O2          0.02381      0.83567      0.15289  1.0000
  O2          0.76568      0.56401      0.48830  1.0000
  O2          0.01448      0.57049      0.82212  1.0000
  F           0.05537      0.89237      0.66093  1.0000
  F           0.69860      0.54616      0.99239  1.0000
  F           0.02685      0.55597      0.33323  1.0000
  F           0.15365      0.09622      0.15719  1.0000
  F           0.46533      0.41993      0.48480  1.0000
  F           0.14801      0.44230      0.82506  1.0000
