data_cif

_audit_creation_method             'generated by GULP'

_symmetry_space_group_name_H-M     'P 1'
_symmetry_Int_Tables_number        1
_symmetry_cell_setting             triclinic

_cell_length_a                       11.9506
_cell_length_b                       12.0353
_cell_length_c                       29.4574
_cell_angle_alpha                   90.3086
_cell_angle_beta                    89.6034
_cell_angle_gamma                  120.2543

loop_
_atom_site_label
_atom_site_fract_x
_atom_site_fract_y
_atom_site_fract_z
_atom_site_occupancy
  Ge          0.31227      0.37570      0.44478  1.0000
  Si          0.24848      0.32533      0.77809  1.0000
  Si          0.29826      0.29410      0.11056  1.0000
  Si          0.92224      0.62047      0.94556  1.0000
  Si          0.99754      0.67839      0.27802  1.0000
  Si          0.95103      0.69755      0.61387  1.0000
  Si          0.00310      0.69967      0.71435  1.0000
  Si          0.94708      0.62294      0.37878  1.0000
  Si          0.91822      0.67426      0.04621  1.0000
  Si          0.24352      0.29714      0.21112  1.0000
  Si          0.30256      0.37990      0.87871  1.0000
  Ge          0.32970      0.31989      0.54412  1.0000
  Si          0.14719      0.41744      0.37513  1.0000
  Si          0.20768      0.11071      0.71463  1.0000
  Si          0.50889      0.46751      0.04539  1.0000
  Si          0.09480      0.58153      0.88035  1.0000
  Si          0.03666      0.88868      0.21368  1.0000
  Si          0.74105      0.52528      0.54879  1.0000
  Si          0.04243      0.52893      0.77859  1.0000
  Si          0.73952      0.58526      0.44574  1.0000
  Si          0.08867      0.88404      0.11191  1.0000
  Si          0.20183      0.47146      0.27368  1.0000
  Si          0.51175      0.41628      0.94367  1.0000
  Si          0.15613      0.10807      0.61232  1.0000
  Si          0.91959      0.40144      0.26136  1.0000
  Si          0.23036      0.90021      0.59961  1.0000
  Si          0.72150      0.69729      0.93030  1.0000
  Si          0.32505      0.60240      0.76343  1.0000
  Si          0.01829      0.09255      0.09707  1.0000
  Ge          0.52187      0.29522      0.43069  1.0000
  Si          0.02350      0.30221      0.89407  1.0000
  Ge          0.52408      0.59964      0.56465  1.0000
  Si          0.31909      0.09727      0.22750  1.0000
  Si          0.22680      0.69805      0.39195  1.0000
  Si          0.71709      0.39602      0.06008  1.0000
  Si          0.92602      0.89912      0.72910  1.0000
  Si          0.86823      0.34262      0.36189  1.0000
  Si          0.28466      0.90959      0.70060  1.0000
  Si          0.70991      0.74642      0.03106  1.0000
  Si          0.37444      0.65920      0.86433  1.0000
  Si          0.96085      0.08933      0.19780  1.0000
  Si          0.53654      0.24042      0.53367  1.0000
  Si          0.96615      0.25167      0.79343  1.0000
  Si          0.53409      0.66348      0.46117  1.0000
  Si          0.36884      0.08614      0.12667  1.0000
  Si          0.27970      0.74874      0.29073  1.0000
  Si          0.71255      0.33881      0.95933  1.0000
  Si          0.87627      0.90304      0.62860  1.0000
  Si          0.59012      0.11605      0.37723  1.0000
  Si          0.50509      0.85350      0.71493  1.0000
  Si          0.77117      0.02560      0.04576  1.0000
  Si          0.65470      0.87773      0.88050  1.0000
  Si          0.74303      0.15241      0.21118  1.0000
  Si          0.47844      0.96605      0.54704  1.0000
  Si          0.74865      0.97144      0.77976  1.0000
  Si          0.47523      0.87864      0.44425  1.0000
  Si          0.64940      0.14837      0.11038  1.0000
  Si          0.49836      0.02716      0.27637  1.0000
  Si          0.77477      0.12140      0.94510  1.0000
  Si          0.59837      0.85149      0.61482  1.0000
  O2          0.55542      0.99980      0.41163  1.0000
  O2          0.62469      0.92914      0.74854  1.0000
  O2          0.68966      0.06720      0.07783  1.0000
  O2          0.69390      0.99781      0.91355  1.0000
  O2          0.61924      0.07132      0.24296  1.0000
  O2          0.56061      0.92376      0.57751  1.0000
  O2          0.96466      0.57664      0.74681  1.0000
  O2          0.04000      0.75853      0.07969  1.0000
  O2          0.86638      0.66288      0.41357  1.0000
  O2          0.28049      0.42338      0.24188  1.0000
  O3          0.19719      0.22553      0.58037  1.0000
  O2          0.38677      0.34072      0.91101  1.0000
  O3          0.19003      0.33823      0.40583  1.0000
  O2          0.38160      0.41618      0.07755  1.0000
  O2          0.28546      0.23862      0.74595  1.0000
  O2          0.04654      0.65837      0.91308  1.0000
  O2          0.86931      0.57549      0.57984  1.0000
  O2          0.95929      0.76418      0.24647  1.0000
  O2          0.74355      0.21710      0.38293  1.0000
  O2          0.41118      0.91245      0.72178  1.0000
  O2          0.70755      0.87168      0.05073  1.0000
  O2          0.49991      0.78555      0.88490  1.0000
  O2          0.83548      0.09187      0.21800  1.0000
  O2          0.54802      0.11984      0.55265  1.0000
  O2          0.84026      0.12482      0.77337  1.0000
  O2          0.54268      0.79211      0.43980  1.0000
  O2          0.49436      0.08423      0.10634  1.0000
  O2          0.40508      0.87407      0.26960  1.0000
  O2          0.71218      0.21241      0.93955  1.0000
  O2          0.75135      0.90392      0.60784  1.0000
  O2          0.56336      0.88029      0.66446  1.0000
  O2          0.76177      0.06897      0.99561  1.0000
  O2          0.55386      0.05874      0.32684  1.0000
  O2          0.69286      0.13709      0.16036  1.0000
  O2          0.48190      0.92757      0.49514  1.0000
  O2          0.69818      0.93449      0.83070  1.0000
  O3          0.51623      0.19099      0.38829  1.0000
  O2          0.42326      0.70032      0.72486  1.0000
  O2          0.92251      0.09390      0.05861  1.0000
  O2          0.72436      0.79618      0.89237  1.0000
  O2          0.82179      0.30423      0.22298  1.0000
  O2          0.32767      0.89766      0.56131  1.0000
  O2          0.82810      0.89966      0.76753  1.0000
  O2          0.32400      0.79450      0.43054  1.0000
  O2          0.71804      0.29918      0.09812  1.0000
  O2          0.41684      0.09836      0.26610  1.0000
  O2          0.92679      0.20366      0.93259  1.0000
  O3          0.52387      0.70109      0.60671  1.0000
  O2          0.94644      0.63900      0.66417  1.0000
  O2          0.97841      0.67655      0.99609  1.0000
  O2          0.94346      0.67990      0.32901  1.0000
  O2          0.30094      0.35272      0.16081  1.0000
  O1          0.24100      0.31365      0.49597  1.0000
  O2          0.30490      0.32475      0.82829  1.0000
  O2          0.99031      0.33262      0.37915  1.0000
  O2          0.29393      0.04128      0.71866  1.0000
  O2          0.57676      0.62319      0.04913  1.0000
  O2          0.25171      0.66883      0.88303  1.0000
  O2          0.94947      0.95755      0.21674  1.0000
  O2          0.66529      0.36990      0.55134  1.0000
  O2          0.95517      0.37291      0.77549  1.0000
  O2          0.67038      0.67118      0.44830  1.0000
  O2          0.24560      0.95307      0.10914  1.0000
  O2          0.28890      0.62743      0.27131  1.0000
  O2          0.58045      0.32912      0.94077  1.0000
  O2          0.99832      0.03389      0.61067  1.0000
  O1          0.37789      0.28692      0.42325  1.0000
  O2          0.32435      0.46844      0.75566  1.0000
  O2          0.15373      0.22511      0.08905  1.0000
  O2          0.85566      0.69644      0.92329  1.0000
  O2          0.92080      0.53579      0.25515  1.0000
  O2          0.09568      0.76569      0.59196  1.0000
  O2          0.92688      0.76635      0.73734  1.0000
  O2          0.09139      0.69591      0.40058  1.0000
  O2          0.85029      0.53101      0.06824  1.0000
  O2          0.31881      0.23107      0.23468  1.0000
  O2          0.15864      0.30410      0.90136  1.0000
  O1          0.38608      0.46084      0.57552  1.0000
  O3          0.41378      0.54200      0.43884  1.0000
  O2          0.09198      0.25160      0.77341  1.0000
  O2          0.37088      0.21114      0.10615  1.0000
  O2          0.83981      0.46480      0.94031  1.0000
  O2          0.15378      0.75068      0.27258  1.0000
  O2          0.87358      0.77579      0.60885  1.0000
  O2          0.15968      0.78182      0.71992  1.0000
  O2          0.86636      0.46668      0.38273  1.0000
  O2          0.83620      0.74814      0.05105  1.0000
  O2          0.08693      0.21609      0.21693  1.0000
  O2          0.37696      0.53546      0.88388  1.0000
  O3          0.40644      0.22769      0.55247  1.0000
  O2          0.84751      0.32642      0.30756  1.0000
  O2          0.30421      0.90637      0.64630  1.0000
  O2          0.71429      0.76579      0.97679  1.0000
  O2          0.39501      0.67662      0.80997  1.0000
  O2          0.94332      0.08912      0.14349  1.0000
  O3          0.53999      0.22754      0.47930  1.0000
  O2          0.94846      0.23206      0.84778  1.0000
  O3          0.52208      0.67523      0.51477  1.0000
  O2          0.38942      0.09172      0.18104  1.0000
  O2          0.29935      0.76778      0.34509  1.0000
  O2          0.71336      0.32185      0.01366  1.0000
  O2          0.85346      0.89926      0.68291  1.0000
  O2          0.21159      0.55846      0.39973  1.0000
  O2          0.06523      0.02605      0.73753  1.0000
  O2          0.59115      0.40957      0.06886  1.0000
  O2          0.03699      0.44068      0.90336  1.0000
  O2          0.17852      0.97268      0.23669  1.0000
  O3          0.65847      0.58284      0.57023  1.0000
  O2          0.18438      0.58631      0.75524  1.0000
  O3          0.64574      0.45077      0.42190  1.0000
  O2          0.03193      0.96739      0.08877  1.0000
  O2          0.05951      0.41634      0.25156  1.0000
  O2          0.59696      0.55753      0.92098  1.0000
  O2          0.21405      0.02239      0.59035  1.0000
  O2          0.20869      0.15945      0.66360  1.0000
  O2          0.45691      0.41538      0.99446  1.0000
  O2          0.20083      0.41855      0.32418  1.0000
  O2          0.03543      0.83347      0.16303  1.0000
  O2          0.78261      0.56970      0.49632  1.0000
  O2          0.04189      0.58111      0.82963  1.0000
  F           0.07387      0.89345      0.66489  1.0000
  F           0.71896      0.54666      0.99575  1.0000
  F           0.06974      0.54849      0.32764  1.0000
  F           0.16873      0.09504      0.16284  1.0000
  F           0.48470      0.42524      0.50178  1.0000
  F           0.17432      0.45203      0.82923  1.0000
