data_cif

_audit_creation_method             'generated by GULP'

_symmetry_space_group_name_H-M     'P 1'
_symmetry_Int_Tables_number        1
_symmetry_cell_setting             triclinic

_cell_length_a                       11.9363
_cell_length_b                       12.0386
_cell_length_c                       29.4234
_cell_angle_alpha                   90.0933
_cell_angle_beta                    90.4178
_cell_angle_gamma                  120.1262

loop_
_atom_site_label
_atom_site_fract_x
_atom_site_fract_y
_atom_site_fract_z
_atom_site_occupancy
  Ge          0.31227      0.37570      0.44478  1.0000
  Si          0.22099      0.30968      0.77966  1.0000
  Si          0.28324      0.28826      0.11171  1.0000
  Si          0.89426      0.60830      0.94259  1.0000
  Si          0.97915      0.66428      0.27281  1.0000
  Si          0.92721      0.70024      0.60996  1.0000
  Si          0.97704      0.68568      0.71034  1.0000
  Si          0.92675      0.61760      0.37318  1.0000
  Si          0.90286      0.66746      0.04334  1.0000
  Si          0.22747      0.28569      0.21221  1.0000
  Si          0.27431      0.36951      0.88027  1.0000
  Ge          0.29207      0.30757      0.54498  1.0000
  Si          0.13436      0.41321      0.37760  1.0000
  Si          0.18378      0.09596      0.71744  1.0000
  Si          0.49232      0.46210      0.04705  1.0000
  Si          0.06360      0.56908      0.87656  1.0000
  Si          0.02199      0.87694      0.20971  1.0000
  Si          0.72343      0.53036      0.54042  1.0000
  Si          0.01334      0.51136      0.77462  1.0000
  Si          0.71663      0.58250      0.43682  1.0000
  Si          0.07631      0.87977      0.10811  1.0000
  Si          0.18484      0.45940      0.27494  1.0000
  Si          0.48623      0.40739      0.94528  1.0000
  Si          0.13097      0.10522      0.61592  1.0000
  Si          0.90286      0.38842      0.25979  1.0000
  Si          0.20701      0.90203      0.59743  1.0000
  Si          0.69302      0.68629      0.92951  1.0000
  Si          0.29562      0.58404      0.76243  1.0000
  Si          0.00424      0.08778      0.09500  1.0000
  Ge          0.50112      0.28930      0.41853  1.0000
  Si          0.99399      0.29087      0.89222  1.0000
  Si          0.50253      0.59451      0.55617  1.0000
  Si          0.30416      0.08444      0.22665  1.0000
  Si          0.20640      0.69554      0.38757  1.0000
  Si          0.70276      0.39056      0.05958  1.0000
  Si          0.90148      0.88544      0.72923  1.0000
  Si          0.85355      0.33730      0.36057  1.0000
  Si          0.26020      0.89665      0.69844  1.0000
  Si          0.69244      0.73965      0.03045  1.0000
  Si          0.34433      0.64746      0.86317  1.0000
  Si          0.94522      0.07819      0.19576  1.0000
  Ge          0.51930      0.23907      0.52573  1.0000
  Si          0.93777      0.23520      0.79131  1.0000
  Si          0.51273      0.66152      0.45386  1.0000
  Si          0.35546      0.08065      0.12580  1.0000
  Si          0.26165      0.73866      0.28661  1.0000
  Si          0.68714      0.32858      0.95870  1.0000
  Si          0.85147      0.90205      0.62888  1.0000
  Si          0.57534      0.10979      0.37160  1.0000
  Si          0.47543      0.83017      0.71199  1.0000
  Si          0.75457      0.01908      0.04401  1.0000
  Si          0.62464      0.86596      0.87847  1.0000
  Si          0.72511      0.13738      0.20991  1.0000
  Si          0.45073      0.95656      0.54444  1.0000
  Si          0.72098      0.95386      0.77765  1.0000
  Si          0.45323      0.87796      0.44093  1.0000
  Si          0.63532      0.14241      0.10880  1.0000
  Si          0.48092      0.01104      0.27346  1.0000
  Si          0.74726      0.11013      0.94327  1.0000
  Si          0.57183      0.83710      0.61102  1.0000
  O2          0.53401      0.00438      0.41132  1.0000
  O2          0.60094      0.90951      0.74343  1.0000
  O2          0.67369      0.06258      0.07500  1.0000
  O2          0.66648      0.98908      0.91021  1.0000
  O3          0.59962      0.05055      0.23939  1.0000
  O2          0.52705      0.90967      0.57645  1.0000
  O2          0.93774      0.55952      0.74094  1.0000
  O2          0.02882      0.75544      0.07508  1.0000
  O2          0.84480      0.66019      0.40585  1.0000
  O2          0.26348      0.40849      0.24455  1.0000
  O3          0.17520      0.23040      0.58655  1.0000
  O2          0.35732      0.33096      0.91374  1.0000
  O3          0.17545      0.33806      0.41014  1.0000
  O2          0.36818      0.41266      0.07993  1.0000
  O2          0.26087      0.22097      0.75003  1.0000
  O2          0.01428      0.64571      0.90838  1.0000
  O2          0.84820      0.58454      0.57354  1.0000
  O2          0.94142      0.74950      0.24019  1.0000
  O2          0.72774      0.21121      0.38068  1.0000
  O2          0.38516      0.89348      0.71877  1.0000
  O2          0.69340      0.86600      0.05037  1.0000
  O2          0.46972      0.77557      0.88323  1.0000
  O2          0.81958      0.07829      0.21608  1.0000
  O2          0.52504      0.11010      0.54845  1.0000
  O2          0.81225      0.10707      0.77119  1.0000
  O2          0.52506      0.79528      0.43667  1.0000
  O2          0.48057      0.08090      0.10465  1.0000
  O3          0.38642      0.85995      0.26389  1.0000
  O2          0.68309      0.20025      0.93907  1.0000
  O2          0.72744      0.90802      0.60913  1.0000
  O2          0.52143      0.84301      0.66050  1.0000
  O2          0.73896      0.05487      0.99304  1.0000
  O3          0.54476      0.03571      0.32369  1.0000
  O2          0.67807      0.12608      0.15838  1.0000
  O2          0.45252      0.91566      0.49307  1.0000
  O2          0.66508      0.91744      0.82781  1.0000
  O3          0.50320      0.18980      0.37562  1.0000
  O2          0.39417      0.67927      0.72395  1.0000
  O2          0.90708      0.09018      0.05638  1.0000
  O2          0.69329      0.78392      0.89131  1.0000
  O2          0.80278      0.28815      0.22221  1.0000
  O2          0.30113      0.90005      0.55839  1.0000
  O2          0.80373      0.88357      0.76783  1.0000
  O2          0.30340      0.79574      0.42584  1.0000
  O2          0.70588      0.29403      0.09741  1.0000
  O3          0.40300      0.08676      0.26621  1.0000
  O2          0.89837      0.19420      0.93064  1.0000
  O2          0.51251      0.68941      0.59700  1.0000
  O2          0.92202      0.63422      0.65896  1.0000
  O2          0.95673      0.66643      0.99255  1.0000
  O2          0.92139      0.66929      0.32248  1.0000
  O2          0.28447      0.34418      0.16224  1.0000
  O1          0.22079      0.29981      0.49407  1.0000
  O2          0.27757      0.31277      0.83033  1.0000
  O2          0.97620      0.33013      0.37919  1.0000
  O2          0.27043      0.02627      0.71927  1.0000
  O2          0.56118      0.61785      0.04960  1.0000
  O2          0.22047      0.65725      0.87979  1.0000
  O2          0.93503      0.94582      0.21307  1.0000
  O2          0.65919      0.37696      0.54148  1.0000
  O2          0.92645      0.35536      0.77164  1.0000
  O2          0.64494      0.66654      0.43718  1.0000
  O2          0.23329      0.94943      0.10618  1.0000
  O2          0.27050      0.61472      0.27023  1.0000
  O2          0.55344      0.31906      0.94111  1.0000
  O2          0.97392      0.03399      0.61188  1.0000
  O1          0.35907      0.28555      0.41098  1.0000
  O2          0.29590      0.45032      0.75576  1.0000
  O2          0.13970      0.22086      0.08841  1.0000
  O2          0.82562      0.68375      0.92086  1.0000
  O2          0.90304      0.52120      0.25013  1.0000
  O2          0.07105      0.77075      0.58832  1.0000
  O2          0.90144      0.75135      0.73410  1.0000
  O2          0.07179      0.69556      0.39502  1.0000
  O2          0.83735      0.52542      0.06601  1.0000
  O2          0.30306      0.21737      0.23457  1.0000
  O2          0.12945      0.29421      0.90121  1.0000
  O3          0.36972      0.46752      0.56450  1.0000
  O3          0.38659      0.54469      0.43340  1.0000
  O2          0.06437      0.23411      0.77298  1.0000
  O2          0.35856      0.20792      0.10687  1.0000
  O2          0.81245      0.45250      0.93806  1.0000
  O2          0.13563      0.73916      0.26688  1.0000
  O2          0.84704      0.77640      0.60695  1.0000
  O2          0.13357      0.76810      0.71559  1.0000
  O2          0.85017      0.46215      0.37963  1.0000
  O2          0.82043      0.74065      0.04887  1.0000
  O2          0.07108      0.20300      0.21624  1.0000
  O2          0.34610      0.52495      0.88440  1.0000
  O3          0.38771      0.23866      0.54837  1.0000
  O2          0.83096      0.31744      0.30620  1.0000
  O2          0.28047      0.90293      0.64403  1.0000
  O2          0.69081      0.75683      0.97603  1.0000
  O2          0.36551      0.66111      0.80880  1.0000
  O2          0.92900      0.08172      0.14125  1.0000
  O3          0.51182      0.21857      0.46800  1.0000
  O2          0.91972      0.21872      0.84566  1.0000
  O2          0.50814      0.66600      0.50920  1.0000
  O2          0.37597      0.08102      0.18045  1.0000
  O2          0.28105      0.76410      0.34094  1.0000
  O2          0.69403      0.31459      0.01301  1.0000
  O2          0.83099      0.89408      0.68323  1.0000
  O2          0.19159      0.55830      0.39779  1.0000
  O2          0.04210      0.00828      0.73965  1.0000
  O2          0.57893      0.40662      0.06933  1.0000
  O2          0.00675      0.42932      0.89991  1.0000
  O2          0.16361      0.95972      0.23410  1.0000
  O2          0.62247      0.56885      0.56052  1.0000
  O2          0.15558      0.56885      0.75223  1.0000
  O3          0.62985      0.44591      0.41349  1.0000
  O2          0.01869      0.96362      0.08525  1.0000
  O2          0.04219      0.40057      0.25165  1.0000
  O2          0.56672      0.54693      0.92120  1.0000
  O2          0.19371      0.02813      0.59052  1.0000
  O2          0.18388      0.15172      0.66738  1.0000
  O2          0.43591      0.40800      0.99635  1.0000
  O2          0.18534      0.41273      0.32621  1.0000
  O2          0.02261      0.82596      0.15856  1.0000
  O2          0.76360      0.57766      0.48863  1.0000
  O2          0.01093      0.56572      0.82507  1.0000
  F           0.05072      0.89131      0.66215  1.0000
  F           0.69747      0.53774      0.99375  1.0000
  F           0.04974      0.54482      0.32316  1.0000
  F           0.15579      0.08641      0.16039  1.0000
  F           0.46274      0.42014      0.48276  1.0000
  F           0.14468      0.43777      0.82655  1.0000
