data_cif

_audit_creation_method             'generated by GULP'

_symmetry_space_group_name_H-M     'P 1'
_symmetry_Int_Tables_number        1
_symmetry_cell_setting             triclinic

_cell_length_a                       11.9526
_cell_length_b                       12.0154
_cell_length_c                       29.4903
_cell_angle_alpha                   89.8789
_cell_angle_beta                    89.7615
_cell_angle_gamma                  120.0106

loop_
_atom_site_label
_atom_site_fract_x
_atom_site_fract_y
_atom_site_fract_z
_atom_site_occupancy
  Ge          0.31227      0.37570      0.44478  1.0000
  Si          0.26075      0.32214      0.77835  1.0000
  Si          0.30944      0.28656      0.10756  1.0000
  Si          0.93420      0.61602      0.94456  1.0000
  Si          0.01201      0.67320      0.27761  1.0000
  Si          0.96504      0.70490      0.61307  1.0000
  Si          0.01758      0.70092      0.71320  1.0000
  Si          0.95823      0.62247      0.38005  1.0000
  Si          0.92946      0.66771      0.04512  1.0000
  Si          0.25516      0.29051      0.20795  1.0000
  Si          0.31309      0.37632      0.87870  1.0000
  Ge          0.35143      0.33150      0.54387  1.0000
  Ge          0.15069      0.42707      0.37219  1.0000
  Si          0.22372      0.11052      0.71495  1.0000
  Si          0.52195      0.46285      0.04399  1.0000
  Si          0.10668      0.57791      0.87942  1.0000
  Si          0.05115      0.88299      0.21155  1.0000
  Si          0.75302      0.53062      0.54813  1.0000
  Si          0.05534      0.52782      0.77770  1.0000
  Si          0.74592      0.58258      0.44507  1.0000
  Si          0.10108      0.87633      0.11019  1.0000
  Si          0.22187      0.46216      0.27362  1.0000
  Si          0.52379      0.41264      0.94258  1.0000
  Si          0.17711      0.11891      0.61248  1.0000
  Si          0.93359      0.39220      0.26228  1.0000
  Si          0.24427      0.90540      0.59920  1.0000
  Si          0.73328      0.69356      0.92938  1.0000
  Si          0.33771      0.59970      0.76358  1.0000
  Si          0.03009      0.08525      0.09509  1.0000
  Ge          0.52384      0.29345      0.43314  1.0000
  Si          0.03469      0.29838      0.89374  1.0000
  Si          0.54032      0.60570      0.56454  1.0000
  Si          0.33146      0.09039      0.22494  1.0000
  Si          0.24246      0.70090      0.39713  1.0000
  Si          0.72886      0.38995      0.05924  1.0000
  Si          0.94246      0.90145      0.72917  1.0000
  Si          0.87181      0.33288      0.36445  1.0000
  Si          0.29905      0.90859      0.69988  1.0000
  Si          0.72188      0.74123      0.03008  1.0000
  Si          0.38622      0.65611      0.86430  1.0000
  Si          0.97308      0.08257      0.19576  1.0000
  Si          0.55025      0.24530      0.53580  1.0000
  Si          0.97862      0.24974      0.79310  1.0000
  Si          0.54202      0.66096      0.46161  1.0000
  Si          0.38056      0.07812      0.12435  1.0000
  Si          0.29763      0.74151      0.29347  1.0000
  Si          0.72447      0.33463      0.95859  1.0000
  Si          0.89683      0.91471      0.62883  1.0000
  Si          0.58775      0.11407      0.37852  1.0000
  Si          0.51868      0.84958      0.71433  1.0000
  Si          0.78267      0.01998      0.04506  1.0000
  Si          0.66591      0.87468      0.87968  1.0000
  Si          0.75475      0.14517      0.21151  1.0000
  Si          0.49404      0.97227      0.54846  1.0000
  Si          0.76190      0.97011      0.77914  1.0000
  Si          0.48827      0.88373      0.44655  1.0000
  Si          0.66162      0.14227      0.11031  1.0000
  Si          0.51006      0.02252      0.27686  1.0000
  Si          0.78583      0.11685      0.94443  1.0000
  Si          0.61899      0.85647      0.61412  1.0000
  O2          0.56793      0.99938      0.41174  1.0000
  O2          0.63921      0.92701      0.74726  1.0000
  O2          0.70529      0.06185      0.07904  1.0000
  O2          0.70567      0.99389      0.91297  1.0000
  O2          0.63469      0.06551      0.24516  1.0000
  O2          0.57442      0.92731      0.57883  1.0000
  O2          0.97877      0.57643      0.74544  1.0000
  O2          0.05158      0.75083      0.07839  1.0000
  O2          0.87256      0.66046      0.41236  1.0000
  O2          0.29454      0.41949      0.23675  1.0000
  O3          0.22171      0.24035      0.58227  1.0000
  O2          0.39834      0.33684      0.91065  1.0000
  O1          0.19416      0.33954      0.40731  1.0000
  O2          0.39299      0.40994      0.07524  1.0000
  O2          0.29989      0.23655      0.74688  1.0000
  O2          0.05789      0.65436      0.91204  1.0000
  O2          0.88065      0.58434      0.57914  1.0000
  O2          0.97614      0.75838      0.24497  1.0000
  O2          0.73706      0.22200      0.38404  1.0000
  O2          0.42541      0.90959      0.72045  1.0000
  O2          0.71895      0.86600      0.04984  1.0000
  O2          0.51155      0.78242      0.88453  1.0000
  O2          0.84713      0.08345      0.21620  1.0000
  O2          0.56400      0.12543      0.55507  1.0000
  O2          0.85264      0.12380      0.77315  1.0000
  O2          0.54902      0.79104      0.44235  1.0000
  O2          0.50704      0.07714      0.10468  1.0000
  O2          0.41887      0.86868      0.27155  1.0000
  O2          0.72374      0.20855      0.93861  1.0000
  O2          0.77306      0.92077      0.60912  1.0000
  O2          0.57456      0.87047      0.66385  1.0000
  O2          0.77045      0.06449      0.99530  1.0000
  O2          0.55747      0.05863      0.32781  1.0000
  O2          0.70038      0.13224      0.16139  1.0000
  O2          0.50237      0.93702      0.49674  1.0000
  O2          0.70864      0.93195      0.82985  1.0000
  O3          0.50810      0.18093      0.39151  1.0000
  O2          0.43703      0.69727      0.72533  1.0000
  O2          0.93438      0.08667      0.05664  1.0000
  O2          0.73595      0.79290      0.89144  1.0000
  O2          0.83700      0.29656      0.22371  1.0000
  O2          0.34244      0.90373      0.56112  1.0000
  O2          0.84386      0.90034      0.76767  1.0000
  O2          0.33655      0.80905      0.43322  1.0000
  O2          0.72995      0.29280      0.09755  1.0000
  O2          0.42965      0.09270      0.26337  1.0000
  O2          0.93764      0.19889      0.93217  1.0000
  O2          0.55296      0.70606      0.60309  1.0000
  O2          0.96013      0.64302      0.66298  1.0000
  O2          0.98964      0.67052      0.99513  1.0000
  O2          0.95943      0.67242      0.32851  1.0000
  O2          0.31218      0.34391      0.15763  1.0000
  O1          0.25325      0.32109      0.49824  1.0000
  O2          0.31573      0.32081      0.82870  1.0000
  O3          0.98276      0.31222      0.38280  1.0000
  O2          0.30889      0.03957      0.71893  1.0000
  O2          0.58921      0.61819      0.04838  1.0000
  O2          0.26307      0.66534      0.88271  1.0000
  O2          0.96343      0.95128      0.21530  1.0000
  O2          0.68098      0.37575      0.55152  1.0000
  O2          0.96842      0.37190      0.77509  1.0000
  O2          0.67702      0.66899      0.44628  1.0000
  O2          0.25775      0.94449      0.10759  1.0000
  O2          0.30615      0.62029      0.27405  1.0000
  O2          0.59276      0.32551      0.94006  1.0000
  O2          0.01911      0.04538      0.61119  1.0000
  O1          0.38260      0.28740      0.42478  1.0000
  O2          0.33673      0.46563      0.75617  1.0000
  O2          0.16464      0.21774      0.08677  1.0000
  O2          0.86731      0.69266      0.92265  1.0000
  O2          0.93850      0.52898      0.25720  1.0000
  O2          0.10937      0.77188      0.59109  1.0000
  O2          0.94210      0.76745      0.73681  1.0000
  O2          0.10334      0.69656      0.39998  1.0000
  O2          0.86163      0.52446      0.06749  1.0000
  O2          0.32890      0.22296      0.23207  1.0000
  O2          0.16977      0.30034      0.90165  1.0000
  O3          0.41145      0.47683      0.57484  1.0000
  O3          0.42332      0.54203      0.43942  1.0000
  O2          0.10465      0.24979      0.77343  1.0000
  O2          0.38017      0.20164      0.10313  1.0000
  O2          0.85127      0.46067      0.93967  1.0000
  O2          0.16621      0.73417      0.27644  1.0000
  O2          0.89087      0.78662      0.60846  1.0000
  O2          0.17393      0.78031      0.71880  1.0000
  O2          0.88729      0.46823      0.38263  1.0000
  O2          0.84829      0.74274      0.05006  1.0000
  O2          0.09867      0.21022      0.21407  1.0000
  O2          0.38827      0.53183      0.88417  1.0000
  O3          0.42318      0.23463      0.55632  1.0000
  O2          0.86368      0.32369      0.30917  1.0000
  O2          0.31800      0.90865      0.64560  1.0000
  O2          0.72575      0.76118      0.97587  1.0000
  O2          0.40680      0.67349      0.81004  1.0000
  O2          0.95507      0.08148      0.14151  1.0000
  O3          0.54691      0.22666      0.48146  1.0000
  O2          0.96072      0.22915      0.84744  1.0000
  O2          0.53514      0.66842      0.51616  1.0000
  O2          0.40174      0.08535      0.17862  1.0000
  O2          0.31231      0.75694      0.34768  1.0000
  O2          0.72542      0.31653      0.01292  1.0000
  O2          0.87260      0.90705      0.68307  1.0000
  O3          0.23026      0.56794      0.40882  1.0000
  O2          0.08172      0.02645      0.73809  1.0000
  O2          0.60271      0.40325      0.06808  1.0000
  O2          0.04750      0.43676      0.90276  1.0000
  O2          0.19273      0.96364      0.23457  1.0000
  O2          0.66437      0.58545      0.56752  1.0000
  O2          0.19762      0.58440      0.75506  1.0000
  O3          0.65456      0.44607      0.42275  1.0000
  O2          0.04479      0.96059      0.08705  1.0000
  O2          0.07535      0.41171      0.25469  1.0000
  O2          0.60965      0.55410      0.92001  1.0000
  O2          0.22911      0.02865      0.59014  1.0000
  O2          0.22687      0.16280      0.66437  1.0000
  O2          0.46988      0.41201      0.99330  1.0000
  O3          0.22500      0.40578      0.32156  1.0000
  O2          0.04772      0.82551      0.16142  1.0000
  O2          0.79417      0.57285      0.49552  1.0000
  O2          0.05453      0.57919      0.82872  1.0000
  F           0.08948      0.89617      0.66500  1.0000
  F           0.73037      0.54184      0.99563  1.0000
  F           0.10157      0.52180      0.33670  1.0000
  F           0.17888      0.08487      0.16137  1.0000
  F           0.49544      0.41900      0.50125  1.0000
  F           0.18653      0.44923      0.82983  1.0000
