data_cif

_audit_creation_method             'generated by GULP'

_symmetry_space_group_name_H-M     'P 1'
_symmetry_Int_Tables_number        1
_symmetry_cell_setting             triclinic

_cell_length_a                       11.9635
_cell_length_b                       12.0262
_cell_length_c                       29.4724
_cell_angle_alpha                   90.2353
_cell_angle_beta                    90.3351
_cell_angle_gamma                  120.1580

loop_
_atom_site_label
_atom_site_fract_x
_atom_site_fract_y
_atom_site_fract_z
_atom_site_occupancy
  Ge          0.31227      0.37570      0.44478  1.0000
  Si          0.22097      0.31174      0.77835  1.0000
  Si          0.28347      0.28994      0.10981  1.0000
  Si          0.89579      0.61153      0.94140  1.0000
  Si          0.97748      0.66724      0.27368  1.0000
  Si          0.92557      0.69765      0.60922  1.0000
  Si          0.97691      0.68711      0.70969  1.0000
  Si          0.93057      0.62238      0.37456  1.0000
  Si          0.90310      0.67044      0.04215  1.0000
  Si          0.22638      0.29010      0.20986  1.0000
  Si          0.27509      0.37165      0.87879  1.0000
  Ge          0.29663      0.30833      0.54452  1.0000
  Si          0.13718      0.41599      0.37754  1.0000
  Si          0.18301      0.09715      0.71616  1.0000
  Si          0.49209      0.46386      0.04497  1.0000
  Si          0.06565      0.57221      0.87575  1.0000
  Si          0.02052      0.87781      0.20905  1.0000
  Si          0.71745      0.52485      0.54152  1.0000
  Si          0.01453      0.51425      0.77397  1.0000
  Si          0.71916      0.58276      0.43843  1.0000
  Si          0.07681      0.88109      0.10758  1.0000
  Si          0.18214      0.45806      0.27495  1.0000
  Si          0.48719      0.40938      0.94332  1.0000
  Si          0.13076      0.10436      0.61481  1.0000
  Si          0.90103      0.38985      0.26125  1.0000
  Si          0.20547      0.90031      0.59667  1.0000
  Si          0.69438      0.68859      0.92804  1.0000
  Si          0.29617      0.58673      0.76138  1.0000
  Si          0.00468      0.08856      0.09301  1.0000
  Ge          0.50328      0.29084      0.42263  1.0000
  Si          0.99565      0.29353      0.89116  1.0000
  Si          0.50244      0.59605      0.55668  1.0000
  Si          0.30122      0.08895      0.22570  1.0000
  Si          0.20998      0.69930      0.38821  1.0000
  Si          0.70223      0.39315      0.05743  1.0000
  Si          0.90096      0.88699      0.72780  1.0000
  Si          0.85710      0.34193      0.36210  1.0000
  Si          0.25945      0.89746      0.69760  1.0000
  Si          0.69260      0.74169      0.02883  1.0000
  Si          0.34556      0.65007      0.86202  1.0000
  Si          0.94636      0.08018      0.19345  1.0000
  Si          0.51572      0.23986      0.52659  1.0000
  Si          0.93860      0.23761      0.79044  1.0000
  Si          0.51438      0.66077      0.45435  1.0000
  Si          0.35581      0.08234      0.12536  1.0000
  Si          0.25760      0.73630      0.28694  1.0000
  Si          0.68816      0.33125      0.95682  1.0000
  Si          0.85150      0.90186      0.62744  1.0000
  Si          0.58264      0.11385      0.37550  1.0000
  Si          0.47599      0.83319      0.71117  1.0000
  Si          0.75508      0.02151      0.04253  1.0000
  Si          0.62603      0.86811      0.87727  1.0000
  Si          0.72956      0.14244      0.20788  1.0000
  Si          0.45294      0.96477      0.54479  1.0000
  Si          0.72124      0.95625      0.77656  1.0000
  Si          0.45716      0.87932      0.44261  1.0000
  Si          0.63651      0.14597      0.10725  1.0000
  Ge          0.48326      0.01564      0.27404  1.0000
  Si          0.74900      0.11300      0.94195  1.0000
  Si          0.57322      0.84280      0.61020  1.0000
  O2          0.54310      0.00622      0.41402  1.0000
  O2          0.60031      0.91259      0.74303  1.0000
  O2          0.67432      0.06505      0.07362  1.0000
  O2          0.66830      0.99124      0.90915  1.0000
  O3          0.60548      0.05407      0.23655  1.0000
  O2          0.53237      0.92255      0.57750  1.0000
  O2          0.93821      0.56167      0.74058  1.0000
  O2          0.02830      0.75657      0.07438  1.0000
  O2          0.84774      0.66254      0.40791  1.0000
  O2          0.26090      0.41108      0.24299  1.0000
  O3          0.17910      0.23011      0.58535  1.0000
  O2          0.35852      0.33301      0.91184  1.0000
  O3          0.17751      0.33964      0.40986  1.0000
  O2          0.36790      0.41352      0.07773  1.0000
  O2          0.26020      0.22270      0.74860  1.0000
  O2          0.01641      0.64900      0.90764  1.0000
  O2          0.84260      0.57756      0.57444  1.0000
  O2          0.94032      0.75169      0.24041  1.0000
  O2          0.73406      0.21785      0.38420  1.0000
  O2          0.38489      0.89551      0.71774  1.0000
  O2          0.69302      0.86809      0.04867  1.0000
  O2          0.47135      0.77800      0.88203  1.0000
  O2          0.82245      0.08214      0.21377  1.0000
  O2          0.52364      0.11927      0.54823  1.0000
  O2          0.81298      0.10960      0.77032  1.0000
  O2          0.52654      0.79468      0.43770  1.0000
  O2          0.48141      0.08222      0.10485  1.0000
  O3          0.38146      0.85415      0.26458  1.0000
  O2          0.68499      0.20311      0.93725  1.0000
  O2          0.72807      0.90813      0.60760  1.0000
  O2          0.52476      0.84735      0.66011  1.0000
  O2          0.74005      0.05865      0.99182  1.0000
  O3          0.55401      0.04644      0.32699  1.0000
  O2          0.68585      0.13635      0.15630  1.0000
  O2          0.45589      0.91756      0.49450  1.0000
  O2          0.66667      0.91975      0.82678  1.0000
  O3          0.50570      0.18901      0.38108  1.0000
  O2          0.39451      0.68192      0.72293  1.0000
  O2          0.90753      0.09097      0.05459  1.0000
  O2          0.69455      0.78600      0.88993  1.0000
  O2          0.80244      0.29163      0.22310  1.0000
  O2          0.30252      0.90130      0.55828  1.0000
  O2          0.80287      0.88531      0.76610  1.0000
  O2          0.30841      0.79993      0.42613  1.0000
  O2          0.70489      0.29677      0.09516  1.0000
  O3          0.39682      0.09310      0.26530  1.0000
  O2          0.90002      0.19689      0.92952  1.0000
  O2          0.50966      0.69434      0.59573  1.0000
  O2          0.92239      0.63448      0.65846  1.0000
  O2          0.95713      0.66963      0.99144  1.0000
  O2          0.92358      0.67388      0.32398  1.0000
  O2          0.28344      0.34798      0.15990  1.0000
  O1          0.22324      0.30026      0.49422  1.0000
  O2          0.27765      0.31463      0.82886  1.0000
  O2          0.97971      0.33383      0.37962  1.0000
  O2          0.26978      0.02778      0.71801  1.0000
  O2          0.56117      0.61985      0.04780  1.0000
  O2          0.22231      0.66025      0.87894  1.0000
  O2          0.93418      0.94739      0.21140  1.0000
  O2          0.64738      0.36981      0.54235  1.0000
  O2          0.92758      0.35808      0.77107  1.0000
  O2          0.64736      0.66667      0.43848  1.0000
  O2          0.23357      0.95065      0.10574  1.0000
  O2          0.26651      0.61276      0.27049  1.0000
  O2          0.55466      0.32129      0.93914  1.0000
  O2          0.97414      0.03391      0.61041  1.0000
  O1          0.36096      0.28414      0.41290  1.0000
  O2          0.29588      0.45259      0.75461  1.0000
  O2          0.14042      0.22129      0.08638  1.0000
  O2          0.82717      0.68668      0.91964  1.0000
  O2          0.90084      0.52279      0.25204  1.0000
  O2          0.06925      0.76840      0.58730  1.0000
  O2          0.90078      0.75279      0.73298  1.0000
  O2          0.07569      0.69965      0.39611  1.0000
  O2          0.83653      0.52785      0.06437  1.0000
  O2          0.30160      0.22287      0.23238  1.0000
  O2          0.13077      0.29661      0.89998  1.0000
  O3          0.37178      0.46670      0.56538  1.0000
  O3          0.38937      0.54436      0.43296  1.0000
  O2          0.06463      0.23633      0.77190  1.0000
  O2          0.35910      0.20964      0.10618  1.0000
  O2          0.81367      0.45559      0.93661  1.0000
  O2          0.13296      0.73990      0.26761  1.0000
  O2          0.84723      0.77557      0.60590  1.0000
  O2          0.13306      0.76973      0.71526  1.0000
  O2          0.85441      0.46720      0.38101  1.0000
  O2          0.82041      0.74333      0.04750  1.0000
  O2          0.07061      0.20661      0.21366  1.0000
  O2          0.34724      0.52732      0.88306  1.0000
  O3          0.39205      0.23672      0.54764  1.0000
  O2          0.82970      0.31963      0.30788  1.0000
  O2          0.27791      0.90061      0.64326  1.0000
  O2          0.69168      0.75912      0.97453  1.0000
  O2          0.36612      0.66375      0.80772  1.0000
  O2          0.92935      0.08247      0.13909  1.0000
  O3          0.51150      0.21930      0.47303  1.0000
  O2          0.92111      0.22113      0.84472  1.0000
  O2          0.50646      0.66439      0.50937  1.0000
  O2          0.37421      0.08241      0.17997  1.0000
  O2          0.28099      0.76657      0.34116  1.0000
  O2          0.69407      0.31688      0.01102  1.0000
  O2          0.83114      0.89503      0.68169  1.0000
  O2          0.19583      0.56166      0.39777  1.0000
  O2          0.04141      0.00990      0.73834  1.0000
  O2          0.57809      0.40817      0.06724  1.0000
  O2          0.00875      0.43231      0.89903  1.0000
  O2          0.16121      0.96283      0.23322  1.0000
  O2          0.62271      0.57119      0.56160  1.0000
  O2          0.15633      0.57153      0.75146  1.0000
  O3          0.63243      0.44539      0.41526  1.0000
  O2          0.01943      0.96415      0.08406  1.0000
  O2          0.03852      0.39903      0.25296  1.0000
  O2          0.56835      0.54912      0.91949  1.0000
  O2          0.19238      0.02637      0.58954  1.0000
  O2          0.18291      0.15231      0.66615  1.0000
  O2          0.43641      0.40992      0.99427  1.0000
  O2          0.18590      0.41231      0.32609  1.0000
  O2          0.02244      0.82678      0.15795  1.0000
  O2          0.76214      0.57377      0.49026  1.0000
  O2          0.01297      0.56905      0.82442  1.0000
  F           0.05058      0.89207      0.66117  1.0000
  F           0.69754      0.53997      0.99223  1.0000
  F           0.05113      0.54650      0.32422  1.0000
  F           0.15545      0.08836      0.15904  1.0000
  F           0.46435      0.42173      0.48365  1.0000
  F           0.14574      0.44032      0.82571  1.0000
