data_cif

_audit_creation_method             'generated by GULP'

_symmetry_space_group_name_H-M     'P 1'
_symmetry_Int_Tables_number        1
_symmetry_cell_setting             triclinic

_cell_length_a                       11.9985
_cell_length_b                       12.0277
_cell_length_c                       29.4852
_cell_angle_alpha                   90.3756
_cell_angle_beta                    89.8848
_cell_angle_gamma                  120.4872

loop_
_atom_site_label
_atom_site_fract_x
_atom_site_fract_y
_atom_site_fract_z
_atom_site_occupancy
  Ge          0.31227      0.37570      0.44478  1.0000
  Si          0.24089      0.30963      0.78076  1.0000
  Si          0.29420      0.29136      0.11334  1.0000
  Si          0.91286      0.61437      0.94717  1.0000
  Si          0.99680      0.67771      0.27994  1.0000
  Si          0.95095      0.70584      0.61615  1.0000
  Si          0.00031      0.69571      0.71831  1.0000
  Si          0.94821      0.62306      0.38061  1.0000
  Si          0.91233      0.67045      0.04784  1.0000
  Si          0.24038      0.29385      0.21364  1.0000
  Si          0.29043      0.37066      0.88244  1.0000
  Ge          0.33739      0.32612      0.54346  1.0000
  Si          0.14424      0.41612      0.37671  1.0000
  Ge          0.19391      0.09109      0.71419  1.0000
  Si          0.50438      0.46374      0.04855  1.0000
  Si          0.08365      0.57347      0.88203  1.0000
  Si          0.03439      0.88705      0.21548  1.0000
  Si          0.74067      0.53087      0.54927  1.0000
  Si          0.03593      0.51829      0.78073  1.0000
  Si          0.74111      0.58735      0.44654  1.0000
  Si          0.08393      0.88096      0.11380  1.0000
  Si          0.19917      0.46903      0.27564  1.0000
  Si          0.50158      0.40899      0.94698  1.0000
  Si          0.16508      0.12714      0.61498  1.0000
  Si          0.91746      0.39935      0.26354  1.0000
  Si          0.23472      0.91071      0.60279  1.0000
  Si          0.71173      0.69061      0.93279  1.0000
  Si          0.31620      0.58910      0.76700  1.0000
  Si          0.01382      0.09005      0.09956  1.0000
  Ge          0.52078      0.29563      0.43296  1.0000
  Si          0.01236      0.29464      0.89637  1.0000
  Si          0.52775      0.60353      0.56467  1.0000
  Si          0.31693      0.09511      0.22986  1.0000
  Si          0.22670      0.69719      0.39435  1.0000
  Si          0.71145      0.39207      0.06273  1.0000
  Si          0.92066      0.89669      0.73766  1.0000
  Si          0.86633      0.34130      0.36403  1.0000
  Si          0.28971      0.90954      0.70504  1.0000
  Si          0.70503      0.74277      0.03347  1.0000
  Si          0.36212      0.65032      0.86755  1.0000
  Si          0.95744      0.08672      0.20026  1.0000
  Si          0.53888      0.24345      0.53564  1.0000
  Si          0.95901      0.24111      0.79554  1.0000
  Si          0.53611      0.66310      0.46208  1.0000
  Si          0.36468      0.08316      0.12901  1.0000
  Si          0.27810      0.74710      0.29323  1.0000
  Si          0.70245      0.33231      0.96208  1.0000
  Si          0.88265      0.91934      0.63484  1.0000
  Si          0.58833      0.11510      0.38008  1.0000
  Si          0.49847      0.83531      0.71714  1.0000
  Si          0.76588      0.02243      0.04867  1.0000
  Si          0.64175      0.86960      0.88399  1.0000
  Si          0.73962      0.14900      0.21369  1.0000
  Si          0.48001      0.96937      0.55023  1.0000
  Si          0.73692      0.95956      0.78383  1.0000
  Si          0.47501      0.87872      0.44761  1.0000
  Si          0.64425      0.14462      0.11308  1.0000
  Si          0.49660      0.02576      0.27901  1.0000
  Si          0.76468      0.11529      0.94808  1.0000
  Si          0.60226      0.85276      0.61669  1.0000
  O2          0.55463      0.00007      0.41515  1.0000
  O2          0.61840      0.91667      0.74998  1.0000
  O2          0.68456      0.06280      0.08107  1.0000
  O2          0.68170      0.98907      0.91760  1.0000
  O2          0.61798      0.06957      0.24630  1.0000
  O2          0.56000      0.92645      0.58172  1.0000
  O2          0.96113      0.56838      0.74775  1.0000
  O2          0.03502      0.75566      0.08124  1.0000
  O2          0.86797      0.66429      0.41487  1.0000
  O2          0.27768      0.42109      0.24424  1.0000
  O3          0.20236      0.23442      0.57839  1.0000
  O2          0.37469      0.33256      0.91521  1.0000
  O3          0.18823      0.33658      0.40676  1.0000
  O2          0.37823      0.41387      0.08079  1.0000
  O3          0.27979      0.22808      0.75045  1.0000
  O2          0.03486      0.65099      0.91420  1.0000
  O2          0.86686      0.58624      0.58169  1.0000
  O2          0.95793      0.76236      0.24830  1.0000
  O2          0.74200      0.21611      0.38521  1.0000
  O2          0.40687      0.89466      0.72398  1.0000
  O2          0.70336      0.86835      0.05328  1.0000
  O2          0.48758      0.77695      0.88866  1.0000
  O2          0.83211      0.08873      0.22018  1.0000
  O2          0.55272      0.12417      0.55492  1.0000
  O2          0.83269      0.11209      0.77591  1.0000
  O2          0.54417      0.79383      0.44377  1.0000
  O2          0.48943      0.08099      0.10877  1.0000
  O2          0.40305      0.87223      0.27205  1.0000
  O2          0.70145      0.20540      0.94242  1.0000
  O2          0.75724      0.91936      0.61411  1.0000
  O2          0.55225      0.85779      0.66621  1.0000
  O2          0.75528      0.06653      0.99891  1.0000
  O2          0.55043      0.05617      0.32984  1.0000
  O2          0.68637      0.13254      0.16327  1.0000
  O2          0.48066      0.92599      0.49881  1.0000
  O2          0.68260      0.92838      0.83432  1.0000
  O3          0.51521      0.19009      0.39093  1.0000
  O2          0.41685      0.68328      0.72815  1.0000
  O2          0.91742      0.09160      0.06145  1.0000
  O2          0.71229      0.78847      0.89491  1.0000
  O2          0.81940      0.30163      0.22515  1.0000
  O2          0.32982      0.90631      0.56437  1.0000
  O2          0.80959      0.87997      0.77341  1.0000
  O2          0.32447      0.79308      0.43333  1.0000
  O2          0.71359      0.29575      0.10081  1.0000
  O2          0.41566      0.09692      0.26829  1.0000
  O2          0.91528      0.19644      0.93469  1.0000
  O2          0.53846      0.70357      0.60316  1.0000
  O2          0.94997      0.65118      0.66624  1.0000
  O2          0.97063      0.67180      0.99764  1.0000
  O2          0.94470      0.68009      0.33100  1.0000
  O2          0.29773      0.35011      0.16362  1.0000
  O1          0.24409      0.31803      0.49636  1.0000
  O2          0.29040      0.31322      0.83280  1.0000
  O2          0.98792      0.33105      0.38146  1.0000
  O3          0.30844      0.03961      0.72491  1.0000
  O2          0.57281      0.61989      0.05214  1.0000
  O2          0.24035      0.66128      0.88588  1.0000
  O2          0.94686      0.95499      0.21905  1.0000
  O2          0.66833      0.37575      0.55259  1.0000
  O2          0.94657      0.36201      0.77721  1.0000
  O2          0.67234      0.67361      0.44838  1.0000
  O2          0.24057      0.94988      0.11154  1.0000
  O2          0.28661      0.62548      0.27384  1.0000
  O2          0.56993      0.32183      0.94393  1.0000
  O2          0.00524      0.04976      0.61717  1.0000
  O1          0.37751      0.28650      0.42338  1.0000
  O2          0.31590      0.45639      0.76055  1.0000
  O2          0.14951      0.22277      0.09188  1.0000
  O2          0.84513      0.68968      0.92538  1.0000
  O2          0.91923      0.53397      0.25755  1.0000
  O2          0.09648      0.77800      0.59642  1.0000
  O2          0.92427      0.76278      0.73969  1.0000
  O2          0.09209      0.69565      0.40301  1.0000
  O2          0.84529      0.52759      0.07035  1.0000
  O2          0.31620      0.22877      0.23740  1.0000
  O2          0.14713      0.29799      0.90513  1.0000
  O3          0.39990      0.47257      0.57445  1.0000
  O3          0.41710      0.54276      0.43879  1.0000
  O2          0.08401      0.24274      0.77549  1.0000
  O2          0.36575      0.20781      0.10875  1.0000
  O2          0.82876      0.45823      0.94272  1.0000
  O2          0.15255      0.74885      0.27501  1.0000
  O2          0.88641      0.79496      0.61530  1.0000
  O2          0.15518      0.78439      0.72161  1.0000
  O2          0.86590      0.46645      0.38471  1.0000
  O2          0.83211      0.74566      0.05303  1.0000
  O2          0.08396      0.21371      0.21968  1.0000
  O2          0.36455      0.52680      0.88723  1.0000
  O3          0.41045      0.23133      0.55515  1.0000
  O2          0.84590      0.32466      0.30972  1.0000
  O2          0.30244      0.91130      0.64986  1.0000
  O2          0.70715      0.76077      0.97925  1.0000
  O2          0.38450      0.66790      0.81333  1.0000
  O2          0.93987      0.08647      0.14602  1.0000
  O3          0.53914      0.22657      0.48139  1.0000
  O2          0.93995      0.22229      0.84985  1.0000
  O2          0.52293      0.66586      0.51653  1.0000
  O2          0.38605      0.08955      0.18337  1.0000
  O2          0.29866      0.76698      0.34763  1.0000
  O2          0.70502      0.31638      0.01639  1.0000
  O2          0.86309      0.91048      0.68887  1.0000
  O2          0.21117      0.55720      0.40203  1.0000
  O3          0.05247      0.02010      0.75040  1.0000
  O2          0.58644      0.40586      0.07211  1.0000
  O2          0.02297      0.43238      0.90531  1.0000
  O2          0.17639      0.97001      0.23881  1.0000
  O2          0.65365      0.58725      0.56824  1.0000
  O2          0.17732      0.57646      0.75733  1.0000
  O3          0.64659      0.45084      0.42381  1.0000
  O2          0.02776      0.96514      0.09116  1.0000
  O2          0.05684      0.41468      0.25368  1.0000
  O2          0.58678      0.55005      0.92409  1.0000
  O2          0.21529      0.03104      0.59537  1.0000
  O3          0.22089      0.18490      0.66401  1.0000
  O2          0.44993      0.40962      0.99797  1.0000
  O2          0.19719      0.41584      0.32605  1.0000
  O2          0.03137      0.83078      0.16491  1.0000
  O2          0.78567      0.57443      0.49739  1.0000
  O2          0.03222      0.57400      0.83092  1.0000
  F           0.10128      0.94445      0.67735  1.0000
  F           0.71131      0.54178      0.99891  1.0000
  F           0.06908      0.54674      0.33070  1.0000
  F           0.16501      0.09288      0.16593  1.0000
  F           0.48496      0.41704      0.50049  1.0000
  F           0.16004      0.44709      0.83254  1.0000
