data_cif

_audit_creation_method             'generated by GULP'

_symmetry_space_group_name_H-M     'P 1'
_symmetry_Int_Tables_number        1
_symmetry_cell_setting             triclinic

_cell_length_a                       11.9897
_cell_length_b                       12.0060
_cell_length_c                       29.4964
_cell_angle_alpha                   89.8176
_cell_angle_beta                    90.5285
_cell_angle_gamma                  120.2716

loop_
_atom_site_label
_atom_site_fract_x
_atom_site_fract_y
_atom_site_fract_z
_atom_site_occupancy
  Ge          0.31227      0.37570      0.44478  1.0000
  Si          0.22336      0.32241      0.78217  1.0000
  Si          0.28345      0.29984      0.11084  1.0000
  Si          0.89433      0.62174      0.94151  1.0000
  Si          0.98575      0.67481      0.27326  1.0000
  Si          0.92659      0.70461      0.60689  1.0000
  Si          0.98031      0.69832      0.70906  1.0000
  Si          0.93199      0.62528      0.37361  1.0000
  Si          0.90491      0.68090      0.04205  1.0000
  Si          0.22876      0.29558      0.21115  1.0000
  Si          0.27475      0.38426      0.88245  1.0000
  Ge          0.29123      0.30357      0.54533  1.0000
  Si          0.13738      0.41740      0.37756  1.0000
  Si          0.19423      0.11827      0.71761  1.0000
  Si          0.49422      0.47457      0.04728  1.0000
  Si          0.06540      0.58524      0.87611  1.0000
  Si          0.02471      0.88552      0.20843  1.0000
  Si          0.71610      0.52757      0.54050  1.0000
  Si          0.01836      0.52587      0.77477  1.0000
  Si          0.71983      0.58506      0.43727  1.0000
  Si          0.07830      0.89216      0.10681  1.0000
  Si          0.18810      0.46722      0.27516  1.0000
  Si          0.48756      0.42031      0.94591  1.0000
  Ge          0.12863      0.09423      0.61864  1.0000
  Si          0.90789      0.39737      0.25952  1.0000
  Si          0.21260      0.90823      0.59114  1.0000
  Si          0.69348      0.69948      0.92893  1.0000
  Si          0.29862      0.59773      0.76344  1.0000
  Si          0.00570      0.10001      0.09371  1.0000
  Ge          0.50318      0.29323      0.42262  1.0000
  Si          0.99499      0.30588      0.89257  1.0000
  Si          0.49935      0.59490      0.55491  1.0000
  Si          0.30695      0.09495      0.22430  1.0000
  Si          0.20989      0.70055      0.38861  1.0000
  Si          0.70428      0.40324      0.05881  1.0000
  Si          0.90541      0.90194      0.72731  1.0000
  Si          0.85859      0.34427      0.35994  1.0000
  Si          0.26737      0.91465      0.69469  1.0000
  Si          0.69475      0.75263      0.02961  1.0000
  Si          0.34528      0.66308      0.86379  1.0000
  Si          0.94733      0.08684      0.19428  1.0000
  Si          0.51568      0.24235      0.52650  1.0000
  Si          0.94073      0.24844      0.79193  1.0000
  Si          0.51448      0.66177      0.45280  1.0000
  Si          0.35734      0.09303      0.12348  1.0000
  Si          0.26576      0.74631      0.28793  1.0000
  Si          0.68723      0.34112      0.95822  1.0000
  Si          0.84898      0.91269      0.62521  1.0000
  Si          0.58089      0.11826      0.37259  1.0000
  Si          0.47757      0.84152      0.71040  1.0000
  Si          0.75652      0.03212      0.04309  1.0000
  Si          0.62624      0.87981      0.87713  1.0000
  Si          0.72994      0.14826      0.20822  1.0000
  Si          0.45639      0.96602      0.54177  1.0000
  Si          0.72264      0.96688      0.77602  1.0000
  Si          0.45972      0.88177      0.43988  1.0000
  Si          0.63701      0.15422      0.10775  1.0000
  Si          0.48738      0.02298      0.27267  1.0000
  Si          0.74789      0.12325      0.94254  1.0000
  Si          0.56499      0.83805      0.60902  1.0000
  O2          0.54238      0.00413      0.40850  1.0000
  O2          0.60539      0.92493      0.74067  1.0000
  O2          0.67597      0.07554      0.07387  1.0000
  O2          0.67126      0.00526      0.90787  1.0000
  O2          0.60502      0.06502      0.23859  1.0000
  O2          0.53157      0.92143      0.57538  1.0000
  O2          0.94414      0.57450      0.74035  1.0000
  O2          0.03062      0.76809      0.07359  1.0000
  O2          0.84868      0.66451      0.40674  1.0000
  O2          0.26545      0.41700      0.24412  1.0000
  O1          0.18055      0.23171      0.58586  1.0000
  O2          0.35658      0.34429      0.91560  1.0000
  O3          0.17705      0.34000      0.40965  1.0000
  O2          0.37054      0.42652      0.07985  1.0000
  O2          0.26518      0.23177      0.75529  1.0000
  O2          0.01419      0.66074      0.90727  1.0000
  O2          0.84167      0.58265      0.57376  1.0000
  O2          0.94750      0.75887      0.23990  1.0000
  O2          0.73312      0.21864      0.38054  1.0000
  O2          0.38788      0.90573      0.71581  1.0000
  O2          0.69593      0.87871      0.04980  1.0000
  O2          0.47166      0.79179      0.88303  1.0000
  O2          0.82092      0.08558      0.21414  1.0000
  O2          0.52219      0.11981      0.54792  1.0000
  O2          0.81517      0.12115      0.77131  1.0000
  O2          0.52748      0.79598      0.43540  1.0000
  O2          0.48284      0.09336      0.10302  1.0000
  O2          0.39287      0.86963      0.26682  1.0000
  O2          0.68254      0.21228      0.93865  1.0000
  O2          0.71812      0.90304      0.60715  1.0000
  O2          0.51738      0.84527      0.65883  1.0000
  O2          0.73845      0.06515      0.99191  1.0000
  O2          0.54864      0.05779      0.32253  1.0000
  O2          0.68003      0.13717      0.15720  1.0000
  O2          0.46831      0.92893      0.49110  1.0000
  O2          0.66431      0.92612      0.82570  1.0000
  O3          0.50479      0.19172      0.38104  1.0000
  O2          0.39805      0.69218      0.72514  1.0000
  O2          0.90872      0.10365      0.05531  1.0000
  O2          0.69334      0.79685      0.89046  1.0000
  O2          0.80994      0.29910      0.22107  1.0000
  O2          0.30465      0.89291      0.55472  1.0000
  O2          0.80712      0.89882      0.76554  1.0000
  O2          0.30841      0.80045      0.42669  1.0000
  O2          0.70810      0.30672      0.09666  1.0000
  O2          0.40539      0.09418      0.26251  1.0000
  O2          0.89907      0.20994      0.93100  1.0000
  O2          0.50173      0.68987      0.59459  1.0000
  O2          0.92693      0.65151      0.65782  1.0000
  O2          0.95726      0.68007      0.99118  1.0000
  O2          0.92850      0.67936      0.32300  1.0000
  O2          0.28492      0.35543      0.16123  1.0000
  O1          0.22404      0.29549      0.49326  1.0000
  O2          0.27898      0.32849      0.83287  1.0000
  O2          0.97964      0.33464      0.37824  1.0000
  O2          0.27762      0.04359      0.71598  1.0000
  O2          0.56401      0.63096      0.04907  1.0000
  O2          0.22195      0.67433      0.87938  1.0000
  O2          0.93717      0.95371      0.21138  1.0000
  O2          0.65047      0.37263      0.54080  1.0000
  O2          0.93132      0.36956      0.77147  1.0000
  O2          0.64556      0.66631      0.43564  1.0000
  O2          0.23468      0.96155      0.10409  1.0000
  O2          0.27432      0.62320      0.27043  1.0000
  O2          0.55379      0.33145      0.94078  1.0000
  O3          0.96190      0.04403      0.60738  1.0000
  O1          0.36225      0.28742      0.41173  1.0000
  O2          0.29682      0.46266      0.75733  1.0000
  O2          0.14094      0.23406      0.08709  1.0000
  O2          0.82522      0.69676      0.91980  1.0000
  O2          0.90966      0.53164      0.25045  1.0000
  O2          0.07175      0.77565      0.58730  1.0000
  O2          0.90771      0.76832      0.73074  1.0000
  O2          0.07635      0.70206      0.39573  1.0000
  O2          0.83916      0.53803      0.06458  1.0000
  O2          0.30511      0.22743      0.23269  1.0000
  O2          0.12924      0.30870      0.90233  1.0000
  O3          0.36784      0.46755      0.56194  1.0000
  O3          0.38710      0.54538      0.43290  1.0000
  O2          0.06703      0.24581      0.77492  1.0000
  O2          0.35940      0.22048      0.10466  1.0000
  O2          0.81256      0.46524      0.93728  1.0000
  O2          0.14200      0.75032      0.26796  1.0000
  O2          0.85738      0.78994      0.60547  1.0000
  O2          0.13477      0.79000      0.71054  1.0000
  O2          0.85612      0.46937      0.37905  1.0000
  O2          0.82252      0.75362      0.04754  1.0000
  O2          0.07265      0.21148      0.21507  1.0000
  O2          0.34455      0.54017      0.88625  1.0000
  O3          0.39765      0.24368      0.54909  1.0000
  O2          0.83549      0.32506      0.30567  1.0000
  O2          0.28228      0.91889      0.64045  1.0000
  O2          0.69272      0.77061      0.97528  1.0000
  O2          0.36774      0.67491      0.80963  1.0000
  O2          0.93076      0.09249      0.13996  1.0000
  O3          0.50824      0.21925      0.47307  1.0000
  O2          0.92126      0.23282      0.84612  1.0000
  O2          0.51208      0.66910      0.50788  1.0000
  O2          0.37682      0.09318      0.17774  1.0000
  O2          0.28462      0.76892      0.34214  1.0000
  O2          0.69397      0.32658      0.01240  1.0000
  O2          0.83953      0.90791      0.68034  1.0000
  O2          0.19269      0.56166      0.39863  1.0000
  O2          0.04803      0.02131      0.73633  1.0000
  O2          0.58175      0.41991      0.06919  1.0000
  O2          0.00844      0.44509      0.89963  1.0000
  O2          0.16643      0.96989      0.23172  1.0000
  O2          0.62076      0.57154      0.56140  1.0000
  O2          0.16056      0.58606      0.75255  1.0000
  O3          0.63687      0.44573      0.41531  1.0000
  O2          0.01969      0.97537      0.08388  1.0000
  O2          0.04623      0.40856      0.25175  1.0000
  O2          0.56649      0.55989      0.92108  1.0000
  O3          0.20374      0.03181      0.58064  1.0000
  O3          0.19966      0.18300      0.67049  1.0000
  O2          0.43798      0.41988      0.99685  1.0000
  O2          0.18941      0.41968      0.32623  1.0000
  O2          0.02502      0.83605      0.15711  1.0000
  O2          0.76245      0.58050      0.48970  1.0000
  O2          0.01363      0.58155      0.82447  1.0000
  F           0.07467      0.94540      0.65243  1.0000
  F           0.69782      0.54984      0.99252  1.0000
  F           0.05543      0.55264      0.32301  1.0000
  F           0.15674      0.09828      0.15783  1.0000
  F           0.46701      0.42416      0.48191  1.0000
  F           0.14490      0.45333      0.82664  1.0000
