data_cif

_audit_creation_method             'generated by GULP'

_symmetry_space_group_name_H-M     'P 1'
_symmetry_Int_Tables_number        1
_symmetry_cell_setting             triclinic

_cell_length_a                       11.9650
_cell_length_b                       12.0219
_cell_length_c                       29.4840
_cell_angle_alpha                   89.9813
_cell_angle_beta                    90.2706
_cell_angle_gamma                  120.2660

loop_
_atom_site_label
_atom_site_fract_x
_atom_site_fract_y
_atom_site_fract_z
_atom_site_occupancy
  Ge          0.31227      0.37570      0.44478  1.0000
  Si          0.22451      0.31353      0.77942  1.0000
  Si          0.28336      0.28791      0.11041  1.0000
  Si          0.89837      0.61082      0.94281  1.0000
  Si          0.98638      0.66708      0.27467  1.0000
  Si          0.92912      0.69966      0.61110  1.0000
  Si          0.98009      0.68945      0.71149  1.0000
  Si          0.93541      0.61540      0.37502  1.0000
  Si          0.90334      0.66775      0.04336  1.0000
  Si          0.22923      0.28655      0.21086  1.0000
  Si          0.27799      0.37130      0.87984  1.0000
  Ge          0.30235      0.31139      0.54518  1.0000
  Si          0.13661      0.40701      0.37666  1.0000
  Si          0.18647      0.09982      0.71705  1.0000
  Si          0.49330      0.46151      0.04595  1.0000
  Si          0.06891      0.57235      0.87732  1.0000
  Si          0.02394      0.87720      0.21009  1.0000
  Si          0.72222      0.52689      0.54334  1.0000
  Si          0.01808      0.51628      0.77564  1.0000
  Si          0.72925      0.58668      0.44011  1.0000
  Si          0.07599      0.87859      0.10843  1.0000
  Si          0.18904      0.45913      0.27457  1.0000
  Si          0.48935      0.40804      0.94440  1.0000
  Si          0.13492      0.10633      0.61567  1.0000
  Si          0.90807      0.38999      0.25989  1.0000
  Si          0.20973      0.90210      0.59819  1.0000
  Si          0.69732      0.68818      0.92918  1.0000
  Si          0.29997      0.58924      0.76263  1.0000
  Si          0.00453      0.08696      0.09483  1.0000
  Ge          0.51084      0.29669      0.42433  1.0000
  Si          0.99849      0.29314      0.89261  1.0000
  Si          0.50632      0.59869      0.55950  1.0000
  Si          0.30627      0.08611      0.22518  1.0000
  Si          0.21335      0.68993      0.38998  1.0000
  Si          0.70266      0.38993      0.05903  1.0000
  Si          0.90410      0.88917      0.72911  1.0000
  Si          0.85800      0.33461      0.36027  1.0000
  Si          0.26291      0.90006      0.69914  1.0000
  Si          0.69403      0.73999      0.02987  1.0000
  Si          0.34877      0.65027      0.86327  1.0000
  Si          0.94704      0.07811      0.19544  1.0000
  Si          0.52144      0.24196      0.52788  1.0000
  Si          0.94209      0.23923      0.79195  1.0000
  Ge          0.52116      0.66286      0.45626  1.0000
  Si          0.35563      0.08027      0.12440  1.0000
  Si          0.26752      0.73776      0.28908  1.0000
  Si          0.69006      0.32990      0.95838  1.0000
  Si          0.85493      0.90392      0.62875  1.0000
  Si          0.57847      0.11566      0.37399  1.0000
  Si          0.47985      0.83709      0.71252  1.0000
  Si          0.75571      0.01940      0.04412  1.0000
  Si          0.62920      0.86833      0.87867  1.0000
  Si          0.72973      0.14065      0.20944  1.0000
  Si          0.45612      0.96517      0.54541  1.0000
  Si          0.72446      0.95815      0.77795  1.0000
  Si          0.45935      0.88070      0.44286  1.0000
  Si          0.63556      0.14184      0.10878  1.0000
  Si          0.48648      0.01555      0.27434  1.0000
  Si          0.75115      0.11214      0.94351  1.0000
  Si          0.57678      0.84459      0.61184  1.0000
  O2          0.52930      0.00748      0.41249  1.0000
  O2          0.60382      0.91526      0.74449  1.0000
  O2          0.67542      0.06168      0.07590  1.0000
  O2          0.67092      0.99040      0.91087  1.0000
  O2          0.60713      0.05960      0.24134  1.0000
  O2          0.53532      0.92045      0.57721  1.0000
  O2          0.94130      0.56376      0.74254  1.0000
  O2          0.02786      0.75394      0.07568  1.0000
  O2          0.85779      0.65891      0.40912  1.0000
  O2          0.26664      0.40975      0.24314  1.0000
  O3          0.18305      0.23125      0.58559  1.0000
  O2          0.36121      0.33209      0.91279  1.0000
  O3          0.17722      0.32983      0.40863  1.0000
  O2          0.36843      0.41236      0.07847  1.0000
  O2          0.26373      0.22536      0.74933  1.0000
  O2          0.01966      0.64882      0.90923  1.0000
  O2          0.84653      0.57941      0.57654  1.0000
  O2          0.94750      0.75145      0.24209  1.0000
  O2          0.73297      0.20827      0.38089  1.0000
  O2          0.38834      0.89867      0.71954  1.0000
  O2          0.69376      0.86571      0.04984  1.0000
  O2          0.47443      0.77775      0.88346  1.0000
  O2          0.82096      0.07827      0.21541  1.0000
  O2          0.52764      0.12014      0.54931  1.0000
  O2          0.81653      0.11172      0.77169  1.0000
  O3          0.53908      0.80895      0.43785  1.0000
  O2          0.48102      0.07971      0.10391  1.0000
  O2          0.39394      0.86213      0.26802  1.0000
  O2          0.68726      0.20227      0.93869  1.0000
  O2          0.73205      0.91107      0.60889  1.0000
  O2          0.52916      0.85472      0.66136  1.0000
  O2          0.74100      0.05799      0.99358  1.0000
  O2          0.54204      0.04824      0.32507  1.0000
  O2          0.67720      0.12700      0.15878  1.0000
  O2          0.45763      0.92171      0.49454  1.0000
  O2          0.66990      0.92132      0.82824  1.0000
  O3          0.51374      0.20118      0.38071  1.0000
  O2          0.39833      0.68517      0.72405  1.0000
  O2          0.90783      0.08955      0.05641  1.0000
  O2          0.69791      0.78613      0.89104  1.0000
  O2          0.81031      0.29209      0.22139  1.0000
  O2          0.30620      0.90196      0.55978  1.0000
  O2          0.80579      0.88710      0.76743  1.0000
  O2          0.30944      0.78577      0.42902  1.0000
  O2          0.70579      0.29352      0.09702  1.0000
  O2          0.40445      0.08609      0.26363  1.0000
  O2          0.90248      0.19593      0.93108  1.0000
  O2          0.51481      0.69454      0.59997  1.0000
  O2          0.92574      0.63639      0.66042  1.0000
  O2          0.95895      0.66828      0.99284  1.0000
  O2          0.92960      0.66968      0.32477  1.0000
  O2          0.28558      0.34466      0.16078  1.0000
  O1          0.22795      0.30879      0.49560  1.0000
  O2          0.28073      0.31519      0.82987  1.0000
  O2          0.97897      0.32373      0.37800  1.0000
  O2          0.27345      0.03077      0.71901  1.0000
  O2          0.56228      0.61754      0.04868  1.0000
  O2          0.22567      0.66031      0.88045  1.0000
  O2          0.93640      0.94552      0.21331  1.0000
  O2          0.64646      0.37169      0.54755  1.0000
  O2          0.93107      0.36000      0.77278  1.0000
  O3          0.66967      0.67930      0.44246  1.0000
  O2          0.23271      0.94806      0.10578  1.0000
  O2          0.27562      0.61515      0.27070  1.0000
  O2          0.55694      0.32011      0.94049  1.0000
  O2          0.97822      0.03559      0.61132  1.0000
  O1          0.36356      0.28081      0.41740  1.0000
  O2          0.29970      0.45517      0.75585  1.0000
  O2          0.13968      0.22051      0.08768  1.0000
  O2          0.83017      0.68631      0.92093  1.0000
  O2          0.91060      0.52454      0.25151  1.0000
  O2          0.07292      0.77053      0.58903  1.0000
  O2          0.90361      0.75477      0.73462  1.0000
  O2          0.07977      0.69132      0.39686  1.0000
  O2          0.83696      0.52493      0.06581  1.0000
  O2          0.30527      0.21913      0.23316  1.0000
  O2          0.13351      0.29591      0.90123  1.0000
  O3          0.38089      0.46478      0.56976  1.0000
  O1          0.39089      0.54098      0.43080  1.0000
  O2          0.06811      0.23828      0.77322  1.0000
  O2          0.35763      0.20677      0.10501  1.0000
  O2          0.81608      0.45474      0.93823  1.0000
  O2          0.14297      0.74159      0.26995  1.0000
  O2          0.85068      0.77735      0.60770  1.0000
  O2          0.13632      0.77225      0.71717  1.0000
  O2          0.85580      0.45913      0.38048  1.0000
  O2          0.82143      0.74133      0.04869  1.0000
  O2          0.07282      0.20372      0.21555  1.0000
  O2          0.35051      0.52710      0.88413  1.0000
  O3          0.39111      0.23267      0.54485  1.0000
  O2          0.83477      0.31701      0.30599  1.0000
  O2          0.28164      0.90209      0.64483  1.0000
  O2          0.69429      0.75839      0.97558  1.0000
  O2          0.36977      0.66543      0.80898  1.0000
  O2          0.92963      0.08111      0.14113  1.0000
  O3          0.53099      0.23139      0.47425  1.0000
  O2          0.92407      0.22134      0.84622  1.0000
  O3          0.50035      0.66887      0.51441  1.0000
  O2          0.37621      0.08270      0.17871  1.0000
  O2          0.28803      0.75814      0.34337  1.0000
  O2          0.69483      0.31433      0.01262  1.0000
  O2          0.83448      0.89731      0.68301  1.0000
  O2          0.19484      0.55015      0.39908  1.0000
  O2          0.04467      0.01240      0.73942  1.0000
  O2          0.57849      0.40517      0.06861  1.0000
  O2          0.01160      0.43187      0.90059  1.0000
  O2          0.16586      0.96115      0.23335  1.0000
  O2          0.63284      0.58284      0.56024  1.0000
  O2          0.16002      0.57395      0.75297  1.0000
  O3          0.63257      0.45386      0.41538  1.0000
  O2          0.01831      0.96218      0.08553  1.0000
  O2          0.04681      0.40167      0.25169  1.0000
  O2          0.57132      0.54849      0.92071  1.0000
  O2          0.19758      0.02866      0.59105  1.0000
  O2          0.18653      0.15493      0.66693  1.0000
  O2          0.43808      0.40775      0.99532  1.0000
  O2          0.18980      0.40990      0.32545  1.0000
  O2          0.02298      0.82506      0.15909  1.0000
  O2          0.76834      0.56704      0.49147  1.0000
  O2          0.01652      0.57027      0.82611  1.0000
  F           0.05422      0.89405      0.66280  1.0000
  F           0.69962      0.53855      0.99371  1.0000
  F           0.05529      0.54125      0.32457  1.0000
  F           0.15540      0.08683      0.15971  1.0000
  F           0.47112      0.43364      0.48570  1.0000
  F           0.14901      0.44133      0.82723  1.0000
