data_cif

_audit_creation_method             'generated by GULP'

_symmetry_space_group_name_H-M     'P 1'
_symmetry_Int_Tables_number        1
_symmetry_cell_setting             triclinic

_cell_length_a                       11.9382
_cell_length_b                       12.0269
_cell_length_c                       29.4813
_cell_angle_alpha                   90.3181
_cell_angle_beta                    90.2542
_cell_angle_gamma                  120.1954

loop_
_atom_site_label
_atom_site_fract_x
_atom_site_fract_y
_atom_site_fract_z
_atom_site_occupancy
  Ge          0.31227      0.37570      0.44478  1.0000
  Si          0.23121      0.31395      0.77879  1.0000
  Si          0.29394      0.29828      0.11089  1.0000
  Si          0.90361      0.61460      0.94064  1.0000
  Si          0.99402      0.67367      0.27071  1.0000
  Si          0.93382      0.69895      0.60952  1.0000
  Si          0.98576      0.68879      0.70979  1.0000
  Si          0.94107      0.63182      0.37089  1.0000
  Si          0.91371      0.67559      0.04105  1.0000
  Si          0.23685      0.29154      0.21140  1.0000
  Si          0.28391      0.37511      0.87924  1.0000
  Ge          0.30483      0.31123      0.54517  1.0000
  Si          0.13774      0.41884      0.37852  1.0000
  Si          0.19291      0.09919      0.71658  1.0000
  Si          0.50320      0.47059      0.04623  1.0000
  Si          0.07341      0.57470      0.87504  1.0000
  Si          0.03318      0.88345      0.20655  1.0000
  Si          0.72843      0.52727      0.54060  1.0000
  Si          0.02335      0.51550      0.77343  1.0000
  Ge          0.72441      0.57910      0.43587  1.0000
  Si          0.08802      0.88894      0.10510  1.0000
  Si          0.19380      0.46233      0.27615  1.0000
  Si          0.49494      0.41359      0.94462  1.0000
  Si          0.14039      0.10622      0.61533  1.0000
  Si          0.91260      0.39474      0.26009  1.0000
  Si          0.21480      0.90181      0.59668  1.0000
  Si          0.70237      0.69277      0.92824  1.0000
  Si          0.30595      0.58858      0.76109  1.0000
  Si          0.01571      0.09709      0.09307  1.0000
  Ge          0.49872      0.28476      0.42270  1.0000
  Si          0.00349      0.29656      0.89096  1.0000
  Si          0.51173      0.59878      0.55588  1.0000
  Si          0.31515      0.09113      0.22403  1.0000
  Si          0.21686      0.70327      0.38834  1.0000
  Si          0.71377      0.39923      0.05813  1.0000
  Si          0.91025      0.88875      0.72818  1.0000
  Si          0.85812      0.34815      0.36074  1.0000
  Si          0.26859      0.89911      0.69761  1.0000
  Si          0.70376      0.74806      0.02900  1.0000
  Si          0.35393      0.65293      0.86169  1.0000
  Si          0.95536      0.08378      0.19353  1.0000
  Si          0.52239      0.24152      0.52651  1.0000
  Si          0.94775      0.23938      0.79031  1.0000
  Si          0.51781      0.66037      0.45377  1.0000
  Si          0.36682      0.09055      0.12314  1.0000
  Si          0.27433      0.74284      0.28747  1.0000
  Si          0.69607      0.33492      0.95753  1.0000
  Si          0.86039      0.90376      0.62796  1.0000
  Si          0.58125      0.11400      0.37363  1.0000
  Si          0.48517      0.83481      0.71067  1.0000
  Si          0.76604      0.02789      0.04260  1.0000
  Si          0.63399      0.87184      0.87718  1.0000
  Si          0.73710      0.14503      0.20816  1.0000
  Si          0.46248      0.96812      0.54411  1.0000
  Si          0.73012      0.95809      0.77645  1.0000
  Si          0.46427      0.88256      0.44152  1.0000
  Si          0.64706      0.15208      0.10735  1.0000
  Si          0.49491      0.01889      0.27305  1.0000
  Si          0.75648      0.11654      0.94205  1.0000
  Si          0.58246      0.84581      0.60958  1.0000
  O2          0.55195      0.00331      0.41000  1.0000
  O2          0.61023      0.91404      0.74232  1.0000
  O2          0.68628      0.07162      0.07418  1.0000
  O2          0.67574      0.99492      0.90912  1.0000
  O2          0.61326      0.06124      0.23907  1.0000
  O2          0.54288      0.92486      0.57597  1.0000
  O2          0.94664      0.56256      0.74019  1.0000
  O2          0.04107      0.76469      0.07204  1.0000
  O3          0.85763      0.67223      0.40239  1.0000
  O2          0.27176      0.41110      0.24553  1.0000
  O3          0.18718      0.23180      0.58595  1.0000
  O2          0.36606      0.33697      0.91314  1.0000
  O3          0.17494      0.34066      0.41121  1.0000
  O2          0.38011      0.42341      0.07961  1.0000
  O2          0.27053      0.22452      0.74921  1.0000
  O2          0.02351      0.65180      0.90649  1.0000
  O2          0.85007      0.57788      0.57537  1.0000
  O2          0.95565      0.75543      0.23691  1.0000
  O2          0.73112      0.22493      0.38158  1.0000
  O2          0.39403      0.89696      0.71783  1.0000
  O2          0.70523      0.87480      0.04906  1.0000
  O2          0.47903      0.78149      0.88183  1.0000
  O2          0.82850      0.08261      0.21356  1.0000
  O2          0.53152      0.12227      0.54881  1.0000
  O2          0.82231      0.11132      0.77003  1.0000
  O2          0.52828      0.79359      0.43749  1.0000
  O2          0.49259      0.09129      0.10226  1.0000
  O2          0.40214      0.86547      0.26663  1.0000
  O2          0.69175      0.20618      0.93794  1.0000
  O2          0.73777      0.91157      0.60796  1.0000
  O2          0.53182      0.84948      0.65926  1.0000
  O2          0.74839      0.06238      0.99186  1.0000
  O2          0.55476      0.05363      0.32331  1.0000
  O2          0.68756      0.13573      0.15728  1.0000
  O2          0.46823      0.92829      0.49286  1.0000
  O2          0.67462      0.92295      0.82664  1.0000
  O3          0.49322      0.17522      0.38237  1.0000
  O2          0.40436      0.68343      0.72251  1.0000
  O2          0.91898      0.09988      0.05455  1.0000
  O2          0.70231      0.78962      0.89004  1.0000
  O2          0.81591      0.29514      0.22172  1.0000
  O2          0.31159      0.90206      0.55808  1.0000
  O2          0.81210      0.88699      0.76664  1.0000
  O2          0.31372      0.80426      0.42652  1.0000
  O2          0.71835      0.30385      0.09605  1.0000
  O2          0.41213      0.08917      0.26267  1.0000
  O2          0.90761      0.20057      0.92943  1.0000
  O2          0.52012      0.69780      0.59484  1.0000
  O2          0.93136      0.63622      0.65865  1.0000
  O2          0.96683      0.67358      0.99034  1.0000
  O2          0.93695      0.68229      0.32000  1.0000
  O2          0.29468      0.35263      0.16178  1.0000
  O1          0.23016      0.31017      0.49589  1.0000
  O2          0.28755      0.31764      0.82945  1.0000
  O2          0.97948      0.33841      0.37939  1.0000
  O2          0.27982      0.02980      0.71808  1.0000
  O2          0.57261      0.62662      0.04845  1.0000
  O2          0.23028      0.66307      0.87842  1.0000
  O2          0.94487      0.95098      0.21053  1.0000
  O2          0.64943      0.37196      0.54450  1.0000
  O2          0.93652      0.35932      0.77065  1.0000
  O3          0.65407      0.67457      0.44063  1.0000
  O2          0.24503      0.95917      0.10325  1.0000
  O2          0.28104      0.61771      0.27115  1.0000
  O2          0.56200      0.32506      0.94045  1.0000
  O2          0.98352      0.03550      0.61093  1.0000
  O1          0.35305      0.27447      0.41537  1.0000
  O2          0.30632      0.45458      0.75490  1.0000
  O2          0.15067      0.23167      0.08746  1.0000
  O2          0.83450      0.68963      0.91924  1.0000
  O2          0.91731      0.52899      0.24919  1.0000
  O2          0.07770      0.77042      0.58730  1.0000
  O2          0.90949      0.75427      0.73331  1.0000
  O2          0.08440      0.70801      0.39425  1.0000
  O2          0.84873      0.53423      0.06421  1.0000
  O2          0.31296      0.22333      0.23299  1.0000
  O2          0.13887      0.30003      0.90011  1.0000
  O3          0.38814      0.46628      0.56838  1.0000
  O3          0.39633      0.54197      0.43047  1.0000
  O2          0.07457      0.23829      0.77222  1.0000
  O2          0.36899      0.21789      0.10499  1.0000
  O2          0.82096      0.45850      0.93648  1.0000
  O2          0.15077      0.74550      0.26644  1.0000
  O2          0.85568      0.77718      0.60653  1.0000
  O2          0.14224      0.77141      0.71552  1.0000
  O2          0.85762      0.47543      0.37936  1.0000
  O2          0.83212      0.74959      0.04711  1.0000
  O2          0.08013      0.20871      0.21476  1.0000
  O2          0.35616      0.53088      0.88305  1.0000
  O3          0.39333      0.23243      0.54530  1.0000
  O2          0.83707      0.32731      0.30635  1.0000
  O2          0.28697      0.90147      0.64325  1.0000
  O2          0.70155      0.76454      0.97470  1.0000
  O2          0.37541      0.66627      0.80742  1.0000
  O2          0.93896      0.08852      0.13924  1.0000
  O3          0.52367      0.22336      0.47295  1.0000
  O2          0.92925      0.22334      0.84458  1.0000
  O2          0.49724      0.65681      0.50859  1.0000
  O2          0.38634      0.09030      0.17747  1.0000
  O2          0.29266      0.76727      0.34166  1.0000
  O2          0.70398      0.32192      0.01175  1.0000
  O2          0.83992      0.89695      0.68222  1.0000
  O2          0.19720      0.56403      0.39940  1.0000
  O2          0.05099      0.01180      0.73881  1.0000
  O2          0.58991      0.41514      0.06829  1.0000
  O2          0.01605      0.43517      0.89860  1.0000
  O2          0.17433      0.96579      0.23088  1.0000
  O2          0.63988      0.58623      0.55650  1.0000
  O2          0.16558      0.57247      0.75098  1.0000
  O1          0.62479      0.43542      0.41008  1.0000
  O2          0.03123      0.97369      0.08261  1.0000
  O2          0.05100      0.40383      0.25346  1.0000
  O2          0.57560      0.55308      0.92059  1.0000
  O2          0.20231      0.02831      0.59010  1.0000
  O2          0.19279      0.15452      0.66664  1.0000
  O2          0.44559      0.41508      0.99578  1.0000
  O2          0.19229      0.41752      0.32773  1.0000
  O2          0.03351      0.83370      0.15526  1.0000
  O3          0.77743      0.56543      0.48981  1.0000
  O2          0.02114      0.57086      0.82369  1.0000
  F           0.05990      0.89390      0.66186  1.0000
  F           0.70778      0.54517      0.99281  1.0000
  F           0.05783      0.55224      0.32449  1.0000
  F           0.16496      0.09467      0.15830  1.0000
  F           0.47311      0.42251      0.48231  1.0000
  F           0.15452      0.44283      0.82570  1.0000
