data_cif

_audit_creation_method             'generated by GULP'

_symmetry_space_group_name_H-M     'P 1'
_symmetry_Int_Tables_number        1
_symmetry_cell_setting             triclinic

_cell_length_a                       11.9502
_cell_length_b                       12.0237
_cell_length_c                       29.5002
_cell_angle_alpha                   90.2403
_cell_angle_beta                    90.1139
_cell_angle_gamma                  120.2471

loop_
_atom_site_label
_atom_site_fract_x
_atom_site_fract_y
_atom_site_fract_z
_atom_site_occupancy
  Ge          0.31227      0.37570      0.44478  1.0000
  Si          0.22796      0.31434      0.77859  1.0000
  Si          0.28699      0.29069      0.11046  1.0000
  Si          0.90301      0.61194      0.94319  1.0000
  Si          0.98792      0.67007      0.27366  1.0000
  Si          0.93396      0.69369      0.61249  1.0000
  Si          0.98450      0.68911      0.71277  1.0000
  Si          0.93368      0.62065      0.37385  1.0000
  Si          0.90702      0.66953      0.04358  1.0000
  Si          0.23255      0.29021      0.21093  1.0000
  Si          0.28326      0.37122      0.87899  1.0000
  Ge          0.29889      0.30824      0.54445  1.0000
  Si          0.13833      0.41405      0.37688  1.0000
  Si          0.18772      0.10016      0.71543  1.0000
  Si          0.49639      0.46287      0.04550  1.0000
  Si          0.07429      0.57271      0.87825  1.0000
  Si          0.02700      0.88060      0.20977  1.0000
  Ge          0.72146      0.52938      0.54379  1.0000
  Si          0.02227      0.51649      0.77676  1.0000
  Si          0.72512      0.58496      0.43922  1.0000
  Si          0.07982      0.88158      0.10827  1.0000
  Si          0.19152      0.46300      0.27479  1.0000
  Si          0.49417      0.40915      0.94395  1.0000
  Si          0.13282      0.10022      0.61387  1.0000
  Si          0.91025      0.39301      0.25975  1.0000
  Si          0.21169      0.89814      0.59765  1.0000
  Si          0.70224      0.68924      0.92905  1.0000
  Si          0.30413      0.59032      0.76256  1.0000
  Si          0.00812      0.08945      0.09473  1.0000
  Ge          0.50607      0.29163      0.42508  1.0000
  Si          0.00364      0.29330      0.89274  1.0000
  Si          0.49994      0.59505      0.55859  1.0000
  Si          0.30957      0.08957      0.22531  1.0000
  Si          0.21265      0.69671      0.38923  1.0000
  Si          0.70634      0.39163      0.05889  1.0000
  Si          0.90521      0.88750      0.72789  1.0000
  Si          0.85868      0.33953      0.36010  1.0000
  Si          0.26657      0.90099      0.69869  1.0000
  Si          0.69739      0.74143      0.02968  1.0000
  Si          0.35405      0.65042      0.86322  1.0000
  Si          0.95020      0.08138      0.19522  1.0000
  Si          0.51736      0.23937      0.52785  1.0000
  Si          0.94549      0.23947      0.79217  1.0000
  Si          0.51808      0.66049      0.45596  1.0000
  Si          0.35923      0.08327      0.12452  1.0000
  Si          0.26873      0.74153      0.28844  1.0000
  Si          0.69504      0.33118      0.95825  1.0000
  Si          0.85314      0.89389      0.62728  1.0000
  Si          0.58063      0.11346      0.37466  1.0000
  Si          0.48339      0.83791      0.71212  1.0000
  Si          0.75915      0.02093      0.04396  1.0000
  Si          0.63438      0.86884      0.87853  1.0000
  Si          0.73233      0.14330      0.20930  1.0000
  Si          0.45817      0.96478      0.54490  1.0000
  Si          0.72737      0.95865      0.77768  1.0000
  Si          0.46036      0.87863      0.44250  1.0000
  Si          0.63907      0.14414      0.10865  1.0000
  Si          0.48918      0.01844      0.27436  1.0000
  Si          0.75601      0.11304      0.94341  1.0000
  Si          0.57525      0.84237      0.61067  1.0000
  O2          0.54390      0.00206      0.41158  1.0000
  O2          0.60677      0.91694      0.74430  1.0000
  O2          0.67859      0.06364      0.07559  1.0000
  O2          0.67612      0.99153      0.91052  1.0000
  O2          0.60943      0.06240      0.24106  1.0000
  O2          0.54092      0.92612      0.57746  1.0000
  O2          0.94557      0.56517      0.74441  1.0000
  O2          0.03170      0.75625      0.07572  1.0000
  O2          0.84964      0.66145      0.40625  1.0000
  O2          0.26941      0.41306      0.24348  1.0000
  O3          0.17774      0.22479      0.58406  1.0000
  O2          0.36692      0.33261      0.91182  1.0000
  O3          0.17857      0.33749      0.40916  1.0000
  O2          0.37168      0.41420      0.07816  1.0000
  O2          0.26563      0.22644      0.74737  1.0000
  O2          0.02565      0.64983      0.91017  1.0000
  O3          0.85196      0.57298      0.57933  1.0000
  O2          0.94922      0.75423      0.24112  1.0000
  O2          0.73397      0.21391      0.38108  1.0000
  O2          0.39262      0.90065      0.71891  1.0000
  O2          0.69694      0.86726      0.04963  1.0000
  O2          0.47964      0.77768      0.88357  1.0000
  O2          0.82389      0.08129      0.21528  1.0000
  O2          0.52375      0.11810      0.54960  1.0000
  O2          0.81947      0.11223      0.77192  1.0000
  O2          0.53024      0.79418      0.43891  1.0000
  O2          0.48450      0.08231      0.10388  1.0000
  O2          0.39582      0.86533      0.26752  1.0000
  O2          0.69267      0.20361      0.93848  1.0000
  O2          0.72883      0.89728      0.60690  1.0000
  O2          0.53327      0.85384      0.66107  1.0000
  O2          0.74461      0.05873      0.99337  1.0000
  O2          0.54560      0.05024      0.32495  1.0000
  O2          0.68069      0.12948      0.15854  1.0000
  O2          0.46341      0.92167      0.49413  1.0000
  O2          0.67365      0.92062      0.82797  1.0000
  O3          0.50643      0.18908      0.38327  1.0000
  O2          0.40167      0.68632      0.72389  1.0000
  O2          0.91136      0.09141      0.05625  1.0000
  O2          0.70367      0.78723      0.89088  1.0000
  O2          0.81272      0.29472      0.22126  1.0000
  O2          0.30739      0.89673      0.55908  1.0000
  O2          0.80796      0.88737      0.76626  1.0000
  O2          0.31013      0.79619      0.42762  1.0000
  O2          0.70934      0.29568      0.09685  1.0000
  O2          0.40748      0.08966      0.26385  1.0000
  O2          0.90783      0.19624      0.93119  1.0000
  O2          0.49942      0.69279      0.59657  1.0000
  O2          0.92988      0.63278      0.66217  1.0000
  O2          0.96317      0.66982      0.99316  1.0000
  O2          0.93122      0.67499      0.32354  1.0000
  O2          0.28907      0.34796      0.16083  1.0000
  O1          0.22580      0.29340      0.49342  1.0000
  O2          0.28546      0.31539      0.82874  1.0000
  O2          0.98058      0.33092      0.37835  1.0000
  O2          0.27491      0.03135      0.71788  1.0000
  O2          0.56523      0.61889      0.04814  1.0000
  O2          0.23121      0.66051      0.88088  1.0000
  O2          0.93947      0.94900      0.21298  1.0000
  O3          0.65475      0.36449      0.53834  1.0000
  O2          0.93465      0.36039      0.77330  1.0000
  O2          0.64267      0.65829      0.43508  1.0000
  O2          0.23665      0.95115      0.10559  1.0000
  O2          0.27845      0.61890      0.27088  1.0000
  O2          0.56194      0.32126      0.94019  1.0000
  O2          0.97562      0.02638      0.60991  1.0000
  O1          0.37037      0.29513      0.41181  1.0000
  O2          0.30328      0.45600      0.75523  1.0000
  O2          0.14331      0.22303      0.08764  1.0000
  O2          0.83534      0.68731      0.92092  1.0000
  O2          0.91151      0.52674      0.25102  1.0000
  O2          0.07695      0.76426      0.58951  1.0000
  O2          0.90767      0.75533      0.73517  1.0000
  O2          0.07765      0.69628      0.39656  1.0000
  O2          0.84042      0.52681      0.06585  1.0000
  O2          0.30855      0.22274      0.23307  1.0000
  O2          0.13877      0.29548      0.90049  1.0000
  O3          0.36265      0.46831      0.56252  1.0000
  O3          0.38583      0.54505      0.43802  1.0000
  O2          0.07127      0.23833      0.77297  1.0000
  O2          0.36185      0.20995      0.10522  1.0000
  O2          0.82134      0.45587      0.93821  1.0000
  O2          0.14455      0.74435      0.26831  1.0000
  O2          0.84991      0.76698      0.60634  1.0000
  O2          0.14094      0.77392      0.71752  1.0000
  O2          0.85636      0.46490      0.37912  1.0000
  O2          0.82444      0.74260      0.04878  1.0000
  O2          0.07599      0.20717      0.21534  1.0000
  O2          0.35576      0.52691      0.88343  1.0000
  O3          0.40190      0.24692      0.55232  1.0000
  O2          0.83695      0.32028      0.30581  1.0000
  O2          0.28496      0.90243      0.64442  1.0000
  O2          0.69864      0.75971      0.97540  1.0000
  O2          0.37462      0.66599      0.80892  1.0000
  O2          0.93279      0.08395      0.14093  1.0000
  O3          0.49560      0.20858      0.47466  1.0000
  O2          0.92815      0.22193      0.84640  1.0000
  O2          0.52676      0.67013      0.51093  1.0000
  O2          0.37954      0.08572      0.17880  1.0000
  O2          0.28692      0.76489      0.34269  1.0000
  O2          0.69942      0.31604      0.01245  1.0000
  O2          0.83291      0.88903      0.68158  1.0000
  O2          0.19653      0.55816      0.39845  1.0000
  O2          0.04521      0.01276      0.73717  1.0000
  O2          0.58180      0.40686      0.06805  1.0000
  O2          0.01794      0.43236      0.90127  1.0000
  O2          0.16872      0.96492      0.23325  1.0000
  O3          0.61169      0.56227      0.56925  1.0000
  O2          0.16384      0.57499      0.75350  1.0000
  O3          0.64635      0.43975      0.42146  1.0000
  O2          0.02188      0.96461      0.08524  1.0000
  O2          0.04940      0.40500      0.25164  1.0000
  O2          0.57610      0.54957      0.92040  1.0000
  O2          0.19623      0.02261      0.58941  1.0000
  O2          0.18591      0.15094      0.66491  1.0000
  O2          0.44181      0.40894      0.99476  1.0000
  O2          0.19154      0.41474      0.32579  1.0000
  O2          0.02664      0.82840      0.15879  1.0000
  O3          0.77359      0.59730      0.49100  1.0000
  O2          0.02089      0.57007      0.82728  1.0000
  F           0.05227      0.88703      0.66103  1.0000
  F           0.70406      0.54000      0.99321  1.0000
  F           0.05787      0.54720      0.32359  1.0000
  F           0.15870      0.08979      0.15932  1.0000
  F           0.46956      0.42157      0.48528  1.0000
  F           0.15342      0.44141      0.82689  1.0000
