data_cif

_audit_creation_method             'generated by GULP'

_symmetry_space_group_name_H-M     'P 1'
_symmetry_Int_Tables_number        1
_symmetry_cell_setting             triclinic

_cell_length_a                       12.0019
_cell_length_b                       11.9856
_cell_length_c                       29.5029
_cell_angle_alpha                   90.1038
_cell_angle_beta                    90.6737
_cell_angle_gamma                  120.0788

loop_
_atom_site_label
_atom_site_fract_x
_atom_site_fract_y
_atom_site_fract_z
_atom_site_occupancy
  Ge          0.69552      0.38696      0.51548  1.0000
  Si          0.60340      0.32247      0.84523  1.0000
  Si          0.66973      0.30698      0.17390  1.0000
  Si          0.28870      0.62294      0.01184  1.0000
  Si          0.36480      0.67279      0.34589  1.0000
  Si          0.30454      0.70434      0.67941  1.0000
  Si          0.36077      0.70033      0.77970  1.0000
  Si          0.30983      0.62268      0.44775  1.0000
  Si          0.28234      0.67537      0.11207  1.0000
  Ge          0.60726      0.28312      0.27213  1.0000
  Si          0.66284      0.37944      0.94532  1.0000
  Si          0.67132      0.32074      0.61428  1.0000
  Ge          0.51917      0.42717      0.44538  1.0000
  Si          0.56480      0.10818      0.78269  1.0000
  Si          0.87742      0.46990      0.10797  1.0000
  Si          0.45825      0.58331      0.94694  1.0000
  Si          0.40626      0.88911      0.28184  1.0000
  Si          0.09291      0.53443      0.61236  1.0000
  Si          0.40087      0.52985      0.84516  1.0000
  Si          0.09260      0.58474      0.50938  1.0000
  Si          0.45392      0.88583      0.17896  1.0000
  Ge          0.57174      0.45459      0.34358  1.0000
  Si          0.87974      0.41773      0.00685  1.0000
  Si          0.51128      0.11239      0.68137  1.0000
  Si          0.28359      0.39043      0.33039  1.0000
  Si          0.58287      0.90428      0.66510  1.0000
  Si          0.08779      0.69919      0.99503  1.0000
  Si          0.68069      0.60027      0.83104  1.0000
  Si          0.38426      0.10152      0.16565  1.0000
  Si          0.87843      0.29701      0.49355  1.0000
  Si          0.38679      0.30279      0.96083  1.0000
  Si          0.87837      0.60530      0.62452  1.0000
  Si          0.69498      0.10036      0.29661  1.0000
  Si          0.59198      0.70392      0.46600  1.0000
  Si          0.08303      0.39638      0.12583  1.0000
  Si          0.28450      0.90108      0.79573  1.0000
  Si          0.23945      0.33612      0.43298  1.0000
  Si          0.64167      0.90795      0.76592  1.0000
  Si          0.07650      0.74950      0.09552  1.0000
  Si          0.73599      0.66020      0.93170  1.0000
  Si          0.32314      0.09157      0.26819  1.0000
  Si          0.88689      0.25276      0.59680  1.0000
  Si          0.32385      0.25093      0.86014  1.0000
  Si          0.89261      0.66948      0.52194  1.0000
  Si          0.73630      0.09042      0.19328  1.0000
  Si          0.64955      0.73907      0.36346  1.0000
  Si          0.08003      0.34107      0.02491  1.0000
  Si          0.23214      0.91193      0.69523  1.0000
  Si          0.95861      0.12396      0.44639  1.0000
  Si          0.86002      0.84621      0.78031  1.0000
  Si          0.13514      0.02841      0.11253  1.0000
  Si          0.01707      0.87839      0.94601  1.0000
  Si          0.09876      0.14199      0.27945  1.0000
  Si          0.83205      0.97726      0.61553  1.0000
  Si          0.10580      0.97027      0.84538  1.0000
  Si          0.83951      0.89223      0.51444  1.0000
  Si          0.01259      0.14823      0.17731  1.0000
  Si          0.86549      0.01867      0.34669  1.0000
  Si          0.14144      0.12313      0.01131  1.0000
  Si          0.95291      0.85283      0.67915  1.0000
  O2          0.91909      0.01454      0.48342  1.0000
  O2          0.98314      0.92710      0.81276  1.0000
  O2          0.05221      0.06665      0.14467  1.0000
  O2          0.06072      0.99920      0.97944  1.0000
  O2          0.97923      0.05682      0.31126  1.0000
  O2          0.91343      0.94078      0.64997  1.0000
  O2          0.32373      0.57783      0.81243  1.0000
  O2          0.40356      0.76108      0.14633  1.0000
  O2          0.22007      0.65789      0.47836  1.0000
  O1          0.65040      0.42049      0.30347  1.0000
  O2          0.56290      0.24178      0.65221  1.0000
  O2          0.75213      0.34028      0.97527  1.0000
  O1          0.56272      0.34597      0.48322  1.0000
  O2          0.74653      0.41598      0.13621  1.0000
  O2          0.64218      0.23565      0.81438  1.0000
  O2          0.41149      0.66051      0.97987  1.0000
  O2          0.21700      0.58295      0.64562  1.0000
  O2          0.33289      0.76252      0.31334  1.0000
  O2          0.10970      0.21682      0.45257  1.0000
  O2          0.76902      0.90892      0.78560  1.0000
  O2          0.07322      0.87408      0.11554  1.0000
  O2          0.86350      0.78670      0.95175  1.0000
  O2          0.18709      0.07612      0.28386  1.0000
  O2          0.89003      0.13099      0.61932  1.0000
  O2          0.19661      0.12439      0.84007  1.0000
  O2          0.90764      0.80703      0.50732  1.0000
  O2          0.85856      0.08719      0.17189  1.0000
  O2          0.77094      0.86665      0.34227  1.0000
  O2          0.07966      0.21482      0.00489  1.0000
  O2          0.10677      0.91428      0.67526  1.0000
  O2          0.91105      0.85566      0.73010  1.0000
  O2          0.12848      0.07384      0.06228  1.0000
  O2          0.92407      0.06013      0.39676  1.0000
  O2          0.04977      0.13448      0.22814  1.0000
  O2          0.85132      0.93768      0.56613  1.0000
  O2          0.05362      0.93261      0.89581  1.0000
  O2          0.88824      0.20564      0.45511  1.0000
  O2          0.77768      0.69536      0.79278  1.0000
  O2          0.28480      0.09723      0.12719  1.0000
  O2          0.08831      0.79715      0.95692  1.0000
  O2          0.17689      0.29245      0.29327  1.0000
  O2          0.68008      0.90484      0.62707  1.0000
  O2          0.18733      0.90020      0.83392  1.0000
  O2          0.68813      0.81594      0.50187  1.0000
  O2          0.08309      0.29933      0.16429  1.0000
  O2          0.78696      0.09062      0.33453  1.0000
  O2          0.29235      0.20466      0.99925  1.0000
  O2          0.88223      0.70451      0.66286  1.0000
  O2          0.30388      0.64326      0.72899  1.0000
  O2          0.34431      0.67794      0.06284  1.0000
  O2          0.31271      0.67362      0.39634  1.0000
  O3          0.68219      0.37335      0.22109  1.0000
  O3          0.60546      0.31190      0.56737  1.0000
  O2          0.66089      0.32217      0.89529  1.0000
  O3          0.34978      0.31752      0.45296  1.0000
  O2          0.65225      0.03968      0.78535  1.0000
  O2          0.94553      0.62584      0.11312  1.0000
  O2          0.61453      0.67071      0.95003  1.0000
  O2          0.32039      0.95852      0.28337  1.0000
  O2          0.01867      0.37887      0.61414  1.0000
  O2          0.31329      0.37341      0.84244  1.0000
  O2          0.02724      0.67434      0.50804  1.0000
  O2          0.60938      0.95774      0.17715  1.0000
  O3          0.66607      0.62586      0.34495  1.0000
  O2          0.94862      0.33063      0.00505  1.0000
  O2          0.35506      0.04289      0.67732  1.0000
  O3          0.74726      0.29051      0.48430  1.0000
  O2          0.67803      0.46524      0.82299  1.0000
  O2          0.51863      0.23139      0.15627  1.0000
  O2          0.22230      0.69991      0.98943  1.0000
  O2          0.28625      0.52766      0.32574  1.0000
  O2          0.44661      0.77189      0.65686  1.0000
  O2          0.28446      0.76671      0.80214  1.0000
  O2          0.45400      0.70069      0.46874  1.0000
  O2          0.21496      0.53271      0.13461  1.0000
  O3          0.70121      0.23238      0.30512  1.0000
  O2          0.52172      0.30460      0.96856  1.0000
  O2          0.74873      0.47048      0.63356  1.0000
  O3          0.77267      0.55697      0.49791  1.0000
  O2          0.44749      0.24960      0.83994  1.0000
  O2          0.73104      0.21172      0.17290  1.0000
  O2          0.20626      0.46704      0.00655  1.0000
  O2          0.51752      0.73045      0.34449  1.0000
  O2          0.22828      0.78416      0.67549  1.0000
  O2          0.51678      0.78152      0.78498  1.0000
  O2          0.24624      0.46896      0.45012  1.0000
  O2          0.20391      0.75307      0.11595  1.0000
  O3          0.43897      0.21501      0.29009  1.0000
  O2          0.73778      0.53551      0.95138  1.0000
  O2          0.76429      0.25666      0.61577  1.0000
  O2          0.22273      0.32300      0.37806  1.0000
  O2          0.65680      0.90663      0.71166  1.0000
  O2          0.07911      0.76762      0.04124  1.0000
  O2          0.75293      0.67555      0.87745  1.0000
  O2          0.31885      0.10198      0.21286  1.0000
  O2          0.88555      0.23595      0.54261  1.0000
  O2          0.31020      0.23190      0.91445  1.0000
  O2          0.87890      0.67135      0.57720  1.0000
  O2          0.75454      0.09481      0.24748  1.0000
  O2          0.66199      0.76224      0.41765  1.0000
  O2          0.08088      0.32381      0.07924  1.0000
  O2          0.21505      0.90949      0.74954  1.0000
  O3          0.58132      0.57330      0.47939  1.0000
  O2          0.42498      0.02402      0.80592  1.0000
  O2          0.95720      0.40998      0.13290  1.0000
  O2          0.40088      0.44220      0.96981  1.0000
  O2          0.54966      0.97718      0.30221  1.0000
  O2          0.00289      0.58841      0.63080  1.0000
  O2          0.54135      0.58647      0.82254  1.0000
  O2          0.00253      0.44254      0.48838  1.0000
  O2          0.40172      0.97738      0.15996  1.0000
  O3          0.41875      0.40847      0.31921  1.0000
  O2          0.96575      0.55857      0.98430  1.0000
  O2          0.56866      0.02979      0.65753  1.0000
  O2          0.56292      0.16149      0.73257  1.0000
  O2          0.82739      0.41951      0.05690  1.0000
  O1          0.58052      0.39681      0.39505  1.0000
  O2          0.40727      0.84110      0.23032  1.0000
  O2          0.13914      0.58093      0.56111  1.0000
  O2          0.40330      0.58333      0.89620  1.0000
  F           0.43175      0.89999      0.73068  1.0000
  F           0.08747      0.55045      0.06123  1.0000
  F           0.46479      0.51948      0.40378  1.0000
  F           0.54768      0.13527      0.23716  1.0000
  F           0.84218      0.44218      0.55219  1.0000
  F           0.53384      0.45175      0.89645  1.0000
