data_cif

_audit_creation_method             'generated by GULP'

_symmetry_space_group_name_H-M     'P 1'
_symmetry_Int_Tables_number        1
_symmetry_cell_setting             triclinic

_cell_length_a                       11.9169
_cell_length_b                       12.0203
_cell_length_c                       29.5388
_cell_angle_alpha                   90.3010
_cell_angle_beta                    89.9816
_cell_angle_gamma                  119.8116

loop_
_atom_site_label
_atom_site_fract_x
_atom_site_fract_y
_atom_site_fract_z
_atom_site_occupancy
  Ge          0.69552      0.38696      0.51548  1.0000
  Si          0.59614      0.32294      0.84154  1.0000
  Si          0.65233      0.30267      0.17189  1.0000
  Si          0.26683      0.62096      0.00414  1.0000
  Ge          0.36199      0.68585      0.33540  1.0000
  Si          0.30266      0.70992      0.67301  1.0000
  Si          0.35163      0.69739      0.77305  1.0000
  Si          0.30440      0.62897      0.43867  1.0000
  Si          0.27351      0.68017      0.10451  1.0000
  Si          0.60028      0.30776      0.27352  1.0000
  Si          0.64840      0.38250      0.94159  1.0000
  Si          0.67100      0.32281      0.61347  1.0000
  Ge          0.52537      0.42431      0.44413  1.0000
  Si          0.55814      0.10751      0.78017  1.0000
  Si          0.86270      0.47612      0.10772  1.0000
  Si          0.43753      0.58180      0.93825  1.0000
  Si          0.39375      0.89558      0.26928  1.0000
  Si          0.09264      0.53758      0.60697  1.0000
  Si          0.38926      0.52416      0.83679  1.0000
  Si          0.08880      0.58620      0.50424  1.0000
  Si          0.44573      0.89314      0.16862  1.0000
  Ge          0.55760      0.47921      0.34217  1.0000
  Si          0.85939      0.42145      0.00640  1.0000
  Si          0.50779      0.11383      0.67919  1.0000
  Si          0.28063      0.39958      0.31824  1.0000
  Si          0.58211      0.90972      0.66003  1.0000
  Si          0.06574      0.69944      0.99078  1.0000
  Si          0.67173      0.59722      0.82399  1.0000
  Si          0.37472      0.10187      0.15541  1.0000
  Si          0.87832      0.29923      0.49011  1.0000
  Si          0.36755      0.30313      0.95369  1.0000
  Si          0.87579      0.60738      0.62057  1.0000
  Si          0.67418      0.10058      0.28579  1.0000
  Si          0.58960      0.71208      0.45417  1.0000
  Si          0.07316      0.40379      0.12057  1.0000
  Si          0.27575      0.89819      0.79087  1.0000
  Si          0.23997      0.34482      0.42124  1.0000
  Si          0.63405      0.90701      0.76078  1.0000
  Si          0.06298      0.75292      0.09131  1.0000
  Si          0.71861      0.66061      0.92445  1.0000
  Si          0.31867      0.09734      0.25585  1.0000
  Si          0.88928      0.25676      0.59332  1.0000
  Si          0.31280      0.24791      0.85311  1.0000
  Si          0.88560      0.67023      0.51810  1.0000
  Si          0.72354      0.09339      0.18524  1.0000
  Si          0.65394      0.75880      0.35158  1.0000
  Si          0.06021      0.34227      0.02008  1.0000
  Si          0.22781      0.91442      0.69059  1.0000
  Si          0.95879      0.13010      0.43806  1.0000
  Si          0.85150      0.84376      0.77406  1.0000
  Si          0.12561      0.03252      0.10486  1.0000
  Si          0.99789      0.87919      0.93991  1.0000
  Si          0.09659      0.15479      0.26970  1.0000
  Si          0.83049      0.98031      0.60760  1.0000
  Si          0.09518      0.96771      0.83949  1.0000
  Si          0.83632      0.89586      0.50531  1.0000
  Si          0.00369      0.15527      0.16940  1.0000
  Si          0.86027      0.04006      0.33714  1.0000
  Si          0.11994      0.12300      0.00444  1.0000
  Si          0.94822      0.85535      0.67288  1.0000
  O2          0.92137      0.01294      0.47217  1.0000
  O2          0.97558      0.92381      0.80551  1.0000
  O2          0.04489      0.07632      0.13613  1.0000
  O2          0.03908      0.00209      0.97160  1.0000
  O2          0.97879      0.07957      0.30367  1.0000
  O2          0.91107      0.93730      0.63951  1.0000
  O2          0.31270      0.57197      0.80363  1.0000
  O2          0.39841      0.76789      0.13604  1.0000
  O2          0.21643      0.65909      0.47309  1.0000
  O3          0.64057      0.42594      0.30506  1.0000
  O2          0.56229      0.24593      0.65137  1.0000
  O2          0.73147      0.34459      0.97493  1.0000
  O1          0.55727      0.34439      0.48408  1.0000
  O2          0.73786      0.42703      0.14024  1.0000
  O2          0.63554      0.23251      0.81224  1.0000
  O2          0.38759      0.65833      0.97009  1.0000
  O2          0.21867      0.58961      0.63883  1.0000
  O3          0.31711      0.77278      0.30131  1.0000
  O2          0.11157      0.22351      0.44220  1.0000
  O2          0.75891      0.90473      0.78120  1.0000
  O2          0.06392      0.87954      0.11116  1.0000
  O2          0.84307      0.78863      0.94435  1.0000
  O2          0.19066      0.09533      0.27577  1.0000
  O2          0.89268      0.13368      0.61392  1.0000
  O2          0.18739      0.12052      0.83312  1.0000
  O2          0.90138      0.80614      0.50206  1.0000
  O2          0.84967      0.09425      0.16399  1.0000
  O2          0.77737      0.88765      0.33330  1.0000
  O2          0.05656      0.21405      0.00027  1.0000
  O2          0.10318      0.91831      0.67037  1.0000
  O2          0.90002      0.86070      0.72275  1.0000
  O2          0.11033      0.06800      0.05406  1.0000
  O2          0.91488      0.07985      0.38769  1.0000
  O2          0.04131      0.13663      0.21942  1.0000
  O2          0.84368      0.94676      0.55618  1.0000
  O2          0.03907      0.93132      0.88949  1.0000
  O2          0.88686      0.20733      0.45235  1.0000
  O2          0.77144      0.69265      0.78570  1.0000
  O2          0.27759      0.10349      0.11694  1.0000
  O2          0.06667      0.79704      0.95261  1.0000
  O2          0.17339      0.30537      0.28142  1.0000
  O2          0.67927      0.91090      0.62104  1.0000
  O2          0.17703      0.89620      0.82915  1.0000
  O2          0.68559      0.81793      0.49138  1.0000
  O2          0.07511      0.30709      0.15845  1.0000
  O2          0.77268      0.10351      0.32481  1.0000
  O2          0.27117      0.20604      0.99173  1.0000
  O2          0.88046      0.70625      0.65879  1.0000
  O2          0.29883      0.64594      0.72186  1.0000
  O2          0.32809      0.67866      0.05389  1.0000
  O3          0.30039      0.68079      0.38949  1.0000
  O2          0.65116      0.35673      0.22191  1.0000
  O3          0.60462      0.31105      0.56627  1.0000
  O2          0.65274      0.32584      0.89182  1.0000
  O3          0.35474      0.32991      0.44010  1.0000
  O2          0.64491      0.03755      0.78099  1.0000
  O2          0.93137      0.63171      0.11023  1.0000
  O2          0.59405      0.66995      0.94107  1.0000
  O2          0.30542      0.96340      0.27300  1.0000
  O2          0.02214      0.38269      0.60925  1.0000
  O2          0.30237      0.36858      0.83356  1.0000
  O2          0.01870      0.67200      0.50252  1.0000
  O2          0.60257      0.96215      0.16555  1.0000
  O3          0.67014      0.64467      0.33245  1.0000
  O2          0.92704      0.33302      0.00236  1.0000
  O2          0.35159      0.04626      0.67346  1.0000
  O3          0.74552      0.29351      0.48209  1.0000
  O2          0.67162      0.46292      0.81733  1.0000
  O2          0.51000      0.23370      0.14820  1.0000
  O2          0.19857      0.69657      0.98226  1.0000
  O3          0.28148      0.53284      0.31323  1.0000
  O2          0.44616      0.77888      0.65053  1.0000
  O2          0.27428      0.76333      0.79572  1.0000
  O2          0.45199      0.70966      0.45710  1.0000
  O2          0.20734      0.53808      0.12703  1.0000
  O2          0.67261      0.23229      0.29322  1.0000
  O2          0.50328      0.30677      0.96237  1.0000
  O2          0.74560      0.47358      0.63021  1.0000
  O3          0.76153      0.55444      0.49689  1.0000
  O2          0.43974      0.24650      0.83474  1.0000
  O2          0.72643      0.22075      0.16678  1.0000
  O2          0.18600      0.46542      0.99954  1.0000
  O3          0.52713      0.75862      0.33274  1.0000
  O2          0.22436      0.78830      0.66936  1.0000
  O2          0.50755      0.78032      0.77858  1.0000
  O2          0.24867      0.47652      0.43971  1.0000
  O2          0.19007      0.75284      0.10975  1.0000
  O2          0.44291      0.21958      0.27706  1.0000
  O2          0.71957      0.53774      0.94556  1.0000
  O2          0.76775      0.26245      0.61400  1.0000
  O2          0.22066      0.33245      0.36709  1.0000
  O2          0.65366      0.90884      0.70646  1.0000
  O2          0.06238      0.77012      0.03707  1.0000
  O2          0.74039      0.67373      0.87023  1.0000
  O2          0.30136      0.10093      0.20160  1.0000
  O2          0.88500      0.24017      0.53916  1.0000
  O2          0.29438      0.23166      0.90724  1.0000
  O2          0.87509      0.67339      0.57334  1.0000
  O2          0.74382      0.09378      0.23941  1.0000
  O2          0.66103      0.77040      0.40668  1.0000
  O2          0.06596      0.32793      0.07419  1.0000
  O2          0.20787      0.90902      0.74476  1.0000
  O3          0.56917      0.57654      0.46668  1.0000
  O2          0.41614      0.01915      0.80199  1.0000
  O2          0.94920      0.42057      0.13000  1.0000
  O2          0.38086      0.44199      0.96131  1.0000
  O2          0.53485      0.97378      0.29409  1.0000
  O2          0.99996      0.58884      0.62606  1.0000
  O2          0.53160      0.58224      0.81405  1.0000
  O2          0.00098      0.44396      0.48374  1.0000
  O2          0.38604      0.97533      0.14578  1.0000
  O3          0.41469      0.40836      0.30773  1.0000
  O2          0.93978      0.56071      0.98233  1.0000
  O2          0.56964      0.03648      0.65362  1.0000
  O2          0.55678      0.16175      0.73026  1.0000
  O2          0.80781      0.42245      0.05716  1.0000
  O1          0.58667      0.41981      0.39233  1.0000
  O2          0.39227      0.83773      0.21901  1.0000
  O2          0.13644      0.58388      0.55551  1.0000
  O2          0.38573      0.57851      0.88698  1.0000
  F           0.42624      0.90273      0.72400  1.0000
  F           0.06895      0.55062      0.05448  1.0000
  F           0.46219      0.53734      0.38001  1.0000
  F           0.51938      0.09131      0.21994  1.0000
  F           0.84389      0.44622      0.54958  1.0000
  F           0.51952      0.45005      0.88760  1.0000
