data_cif

_audit_creation_method             'generated by GULP'

_symmetry_space_group_name_H-M     'P 1'
_symmetry_Int_Tables_number        1
_symmetry_cell_setting             triclinic

_cell_length_a                       11.9266
_cell_length_b                       12.0086
_cell_length_c                       29.4742
_cell_angle_alpha                   90.4646
_cell_angle_beta                    90.0202
_cell_angle_gamma                  119.8694

loop_
_atom_site_label
_atom_site_fract_x
_atom_site_fract_y
_atom_site_fract_z
_atom_site_occupancy
  Ge          0.69552      0.38696      0.51548  1.0000
  Si          0.60469      0.32833      0.84221  1.0000
  Si          0.66141      0.31253      0.17280  1.0000
  Si          0.27588      0.62870      0.00447  1.0000
  Si          0.36723      0.69251      0.33487  1.0000
  Si          0.31221      0.71833      0.67115  1.0000
  Si          0.35948      0.70197      0.77144  1.0000
  Si          0.30585      0.63781      0.43666  1.0000
  Si          0.28377      0.68939      0.10518  1.0000
  Si          0.61061      0.32009      0.27454  1.0000
  Si          0.65665      0.38995      0.94245  1.0000
  Si          0.67971      0.33054      0.61411  1.0000
  Ge          0.52930      0.42998      0.44542  1.0000
  Si          0.56677      0.11198      0.78103  1.0000
  Si          0.87224      0.48470      0.10878  1.0000
  Si          0.44556      0.58942      0.93781  1.0000
  Si          0.40757      0.90569      0.27113  1.0000
  Si          0.10148      0.54911      0.60374  1.0000
  Si          0.39740      0.53003      0.83598  1.0000
  Si          0.08700      0.59097      0.50087  1.0000
  Si          0.45635      0.90256      0.16983  1.0000
  Ge          0.56768      0.49026      0.34408  1.0000
  Si          0.86794      0.42866      0.00725  1.0000
  Si          0.51798      0.12191      0.67994  1.0000
  Si          0.29017      0.41109      0.31882  1.0000
  Si          0.59255      0.91833      0.65945  1.0000
  Si          0.07430      0.70659      0.99142  1.0000
  Si          0.67976      0.60218      0.82408  1.0000
  Si          0.38416      0.11032      0.15681  1.0000
  Si          0.87893      0.30108      0.48915  1.0000
  Si          0.37583      0.31078      0.95383  1.0000
  Si          0.88307      0.61649      0.61892  1.0000
  Si          0.68725      0.11538      0.28650  1.0000
  Ge          0.59194      0.72180      0.45424  1.0000
  Si          0.08297      0.41300      0.12149  1.0000
  Si          0.28402      0.90280      0.79082  1.0000
  Si          0.24575      0.35451      0.42147  1.0000
  Si          0.64252      0.91179      0.76041  1.0000
  Si          0.07286      0.76144      0.09210  1.0000
  Si          0.72668      0.66790      0.92466  1.0000
  Si          0.32957      0.10593      0.25760  1.0000
  Si          0.89806      0.26605      0.59262  1.0000
  Si          0.32160      0.25381      0.85305  1.0000
  Si          0.88249      0.67230      0.51620  1.0000
  Si          0.73430      0.10447      0.18583  1.0000
  Si          0.65860      0.77002      0.35132  1.0000
  Si          0.06885      0.34994      0.02083  1.0000
  Si          0.23787      0.92265      0.69044  1.0000
  Si          0.96478      0.13555      0.43790  1.0000
  Si          0.85988      0.84839      0.77439  1.0000
  Si          0.13542      0.04125      0.10570  1.0000
  Si          0.00653      0.88615      0.94036  1.0000
  Si          0.10752      0.16435      0.27048  1.0000
  Si          0.84330      0.99165      0.60827  1.0000
  Si          0.10411      0.97287      0.83974  1.0000
  Si          0.84214      0.90576      0.50592  1.0000
  Si          0.01385      0.16471      0.17013  1.0000
  Si          0.86830      0.04949      0.33657  1.0000
  Si          0.12899      0.13082      0.00504  1.0000
  Si          0.95874      0.86453      0.67310  1.0000
  O2          0.93302      0.02213      0.47302  1.0000
  O2          0.98309      0.92869      0.80636  1.0000
  O2          0.05398      0.08534      0.13650  1.0000
  O2          0.04764      0.00930      0.97220  1.0000
  O2          0.98946      0.08842      0.30432  1.0000
  O2          0.92238      0.95070      0.64177  1.0000
  O2          0.32101      0.57638      0.80201  1.0000
  O2          0.40853      0.77696      0.13706  1.0000
  O2          0.20817      0.66464      0.46699  1.0000
  O3          0.65033      0.43857      0.30611  1.0000
  O2          0.57367      0.25542      0.65295  1.0000
  O2          0.73928      0.35186      0.97593  1.0000
  O1          0.55660      0.34385      0.48454  1.0000
  O2          0.74728      0.43669      0.14110  1.0000
  O2          0.64417      0.23668      0.81355  1.0000
  O2          0.39544      0.66580      0.96985  1.0000
  O2          0.22863      0.60145      0.63528  1.0000
  O2          0.33184      0.77943      0.30313  1.0000
  O2          0.11640      0.23397      0.44185  1.0000
  O2          0.76681      0.90895      0.78102  1.0000
  O2          0.07372      0.88820      0.11205  1.0000
  O2          0.85152      0.79643      0.94446  1.0000
  O2          0.20178      0.10526      0.27727  1.0000
  O2          0.90414      0.14532      0.61412  1.0000
  O2          0.19664      0.12561      0.83294  1.0000
  O2          0.89397      0.80502      0.49903  1.0000
  O2          0.86000      0.10454      0.16464  1.0000
  O2          0.77424      0.89857      0.32907  1.0000
  O2          0.06490      0.22125      0.00107  1.0000
  O2          0.11350      0.92714      0.67038  1.0000
  O2          0.91051      0.86522      0.72339  1.0000
  O2          0.12136      0.07649      0.05468  1.0000
  O2          0.92075      0.07946      0.38782  1.0000
  O2          0.05240      0.14515      0.22003  1.0000
  O2          0.86275      0.95692      0.55765  1.0000
  O2          0.04956      0.93828      0.89001  1.0000
  O2          0.88778      0.20869      0.45142  1.0000
  O2          0.77965      0.69703      0.78575  1.0000
  O2          0.28697      0.11230      0.11840  1.0000
  O2          0.07457      0.80352      0.95314  1.0000
  O2          0.18400      0.31639      0.28163  1.0000
  O2          0.69092      0.92155      0.62048  1.0000
  O2          0.18482      0.90018      0.82911  1.0000
  O3          0.69296      0.83885      0.49434  1.0000
  O2          0.08568      0.31683      0.15948  1.0000
  O2          0.78853      0.12190      0.32522  1.0000
  O2          0.27977      0.21440      0.99203  1.0000
  O2          0.88984      0.71661      0.65714  1.0000
  O2          0.30722      0.65187      0.71977  1.0000
  O2          0.33774      0.68727      0.05434  1.0000
  O2          0.30468      0.68220      0.38483  1.0000
  O2          0.66096      0.36819      0.22279  1.0000
  O3          0.60916      0.31472      0.56733  1.0000
  O2          0.66112      0.33250      0.89269  1.0000
  O3          0.35865      0.33482      0.43892  1.0000
  O2          0.65327      0.04182      0.78145  1.0000
  O2          0.94150      0.64054      0.11120  1.0000
  O2          0.60210      0.67776      0.94086  1.0000
  O2          0.31850      0.97274      0.27535  1.0000
  O2          0.03137      0.39425      0.60682  1.0000
  O2          0.31088      0.37406      0.83317  1.0000
  O2          0.01554      0.67514      0.50030  1.0000
  O2          0.61306      0.97196      0.16665  1.0000
  O3          0.67494      0.65559      0.33231  1.0000
  O2          0.93556      0.34023      0.00299  1.0000
  O2          0.36197      0.05488      0.67379  1.0000
  O3          0.74439      0.29208      0.48217  1.0000
  O2          0.68002      0.46784      0.81765  1.0000
  O2          0.51857      0.24314      0.14938  1.0000
  O2          0.20700      0.70380      0.98273  1.0000
  O2          0.29946      0.55009      0.31274  1.0000
  O2          0.45635      0.78775      0.64917  1.0000
  O2          0.28182      0.76718      0.79454  1.0000
  O3          0.44762      0.72512      0.45666  1.0000
  O2          0.21747      0.54734      0.12771  1.0000
  O2          0.68439      0.24626      0.29422  1.0000
  O2          0.51143      0.31475      0.96302  1.0000
  O2          0.75508      0.48216      0.63018  1.0000
  O3          0.75855      0.55383      0.49577  1.0000
  O2          0.44843      0.25186      0.83499  1.0000
  O2          0.73591      0.23098      0.16709  1.0000
  O2          0.19476      0.47286      0.00020  1.0000
  O2          0.52195      0.75912      0.33657  1.0000
  O2          0.23416      0.79693      0.66845  1.0000
  O2          0.51533      0.78431      0.77733  1.0000
  O2          0.25818      0.48705      0.44122  1.0000
  O2          0.20050      0.76217      0.11038  1.0000
  O2          0.45339      0.23014      0.27831  1.0000
  O2          0.72756      0.54547      0.94629  1.0000
  O2          0.77743      0.27154      0.61416  1.0000
  O2          0.22526      0.34677      0.36720  1.0000
  O2          0.66307      0.91563      0.70600  1.0000
  O2          0.07158      0.77812      0.03776  1.0000
  O2          0.74857      0.67989      0.87036  1.0000
  O2          0.31052      0.10726      0.20327  1.0000
  O2          0.88924      0.24478      0.53846  1.0000
  O2          0.30289      0.23824      0.90728  1.0000
  O2          0.87507      0.67834      0.57163  1.0000
  O2          0.75635      0.10777      0.24006  1.0000
  O3          0.67850      0.79041      0.40556  1.0000
  O2          0.07469      0.33606      0.07506  1.0000
  O2          0.21748      0.91595      0.74470  1.0000
  O1          0.56796      0.57816      0.47015  1.0000
  O2          0.42473      0.02284      0.80267  1.0000
  O2          0.95917      0.42977      0.13117  1.0000
  O2          0.38868      0.44977      0.96100  1.0000
  O2          0.54896      0.98725      0.29500  1.0000
  O2          0.00962      0.60138      0.62284  1.0000
  O2          0.53998      0.58742      0.81368  1.0000
  O2          0.99944      0.44663      0.48180  1.0000
  O2          0.39618      0.98412      0.14688  1.0000
  O3          0.42314      0.41713      0.31060  1.0000
  O2          0.94809      0.56767      0.98300  1.0000
  O2          0.57996      0.04530      0.65379  1.0000
  O2          0.56597      0.16790      0.73136  1.0000
  O2          0.81706      0.43008      0.05814  1.0000
  O1          0.59712      0.43027      0.39395  1.0000
  O2          0.40402      0.84835      0.22055  1.0000
  O2          0.14194      0.59280      0.55166  1.0000
  O2          0.39402      0.58553      0.88625  1.0000
  F           0.43538      0.90905      0.72357  1.0000
  F           0.07798      0.55862      0.05520  1.0000
  F           0.47586      0.54907      0.38438  1.0000
  F           0.53103      0.10350      0.22077  1.0000
  F           0.84653      0.45079      0.54842  1.0000
  F           0.52803      0.45667      0.88768  1.0000
