data_cif

_audit_creation_method             'generated by GULP'

_symmetry_space_group_name_H-M     'P 1'
_symmetry_Int_Tables_number        1
_symmetry_cell_setting             triclinic

_cell_length_a                       11.9356
_cell_length_b                       12.0095
_cell_length_c                       29.5155
_cell_angle_alpha                   90.1791
_cell_angle_beta                    89.9278
_cell_angle_gamma                  119.8569

loop_
_atom_site_label
_atom_site_fract_x
_atom_site_fract_y
_atom_site_fract_z
_atom_site_occupancy
  Ge          0.69552      0.38696      0.51548  1.0000
  Si          0.58943      0.32198      0.84226  1.0000
  Si          0.64074      0.29713      0.17167  1.0000
  Si          0.26074      0.61881      0.00593  1.0000
  Si          0.35036      0.68134      0.33630  1.0000
  Si          0.29782      0.70995      0.67385  1.0000
  Si          0.34613      0.69718      0.77407  1.0000
  Si          0.29824      0.62773      0.43868  1.0000
  Si          0.26358      0.67576      0.10649  1.0000
  Si          0.59132      0.30719      0.27319  1.0000
  Si          0.64190      0.37994      0.94235  1.0000
  Si          0.66880      0.32268      0.61363  1.0000
  Ge          0.52470      0.42084      0.44348  1.0000
  Si          0.55237      0.10719      0.78084  1.0000
  Si          0.85267      0.47046      0.10786  1.0000
  Si          0.43190      0.58040      0.93993  1.0000
  Si          0.38757      0.89377      0.27249  1.0000
  Si          0.09034      0.53991      0.60674  1.0000
  Si          0.38356      0.52420      0.83831  1.0000
  Si          0.08743      0.59180      0.50413  1.0000
  Si          0.43475      0.88755      0.17135  1.0000
  Ge          0.54951      0.47817      0.34169  1.0000
  Si          0.85316      0.41791      0.00653  1.0000
  Si          0.50317      0.11430      0.67976  1.0000
  Si          0.27302      0.40008      0.31683  1.0000
  Si          0.57721      0.90995      0.66118  1.0000
  Si          0.05971      0.69663      0.99159  1.0000
  Si          0.66554      0.59697      0.82519  1.0000
  Si          0.36311      0.09549      0.15736  1.0000
  Si          0.88040      0.30290      0.48961  1.0000
  Si          0.36174      0.30100      0.95496  1.0000
  Si          0.87253      0.60787      0.62095  1.0000
  Si          0.66750      0.10280      0.28651  1.0000
  Si          0.58087      0.70704      0.45493  1.0000
  Si          0.06258      0.39843      0.12164  1.0000
  Si          0.27019      0.89803      0.79167  1.0000
  Ge          0.23708      0.34242      0.42042  1.0000
  Si          0.62869      0.90684      0.76191  1.0000
  Si          0.05330      0.74783      0.09215  1.0000
  Si          0.71253      0.65879      0.92575  1.0000
  Si          0.30962      0.09389      0.25813  1.0000
  Si          0.88770      0.25792      0.59290  1.0000
  Si          0.30672      0.24718      0.85432  1.0000
  Si          0.88154      0.67129      0.51850  1.0000
  Si          0.71313      0.08903      0.18602  1.0000
  Si          0.63998      0.75792      0.35241  1.0000
  Si          0.05362      0.33921      0.02105  1.0000
  Si          0.22320      0.91490      0.69129  1.0000
  Si          0.95324      0.12587      0.43824  1.0000
  Si          0.84604      0.84362      0.77494  1.0000
  Si          0.11506      0.02701      0.10608  1.0000
  Si          0.99205      0.87679      0.94086  1.0000
  Si          0.08834      0.15376      0.27040  1.0000
  Si          0.82551      0.98014      0.60861  1.0000
  Si          0.08918      0.96687      0.84035  1.0000
  Si          0.82489      0.89151      0.50654  1.0000
  Si          0.99238      0.14902      0.17041  1.0000
  Si          0.85015      0.04001      0.33756  1.0000
  Si          0.11390      0.12021      0.00552  1.0000
  Si          0.94371      0.85520      0.67370  1.0000
  O2          0.90203      0.00872      0.47321  1.0000
  O2          0.97018      0.92367      0.80625  1.0000
  O2          0.03301      0.07021      0.13685  1.0000
  O2          0.03366      0.99976      0.97251  1.0000
  O2          0.97088      0.07936      0.30494  1.0000
  O2          0.90656      0.93764      0.64050  1.0000
  O2          0.30715      0.57202      0.80507  1.0000
  O2          0.38631      0.76157      0.13909  1.0000
  O2          0.21251      0.66584      0.47155  1.0000
  O3          0.63194      0.42753      0.30362  1.0000
  O2          0.55950      0.24628      0.65154  1.0000
  O2          0.72568      0.34129      0.97500  1.0000
  O1          0.55943      0.34222      0.48319  1.0000
  O2          0.72606      0.42074      0.13952  1.0000
  O2          0.62931      0.23232      0.81280  1.0000
  O2          0.38231      0.65656      0.97215  1.0000
  O2          0.21479      0.59060      0.63925  1.0000
  O2          0.31330      0.76888      0.30550  1.0000
  O3          0.10400      0.20367      0.44227  1.0000
  O2          0.75373      0.90484      0.78213  1.0000
  O2          0.05275      0.87369      0.11203  1.0000
  O2          0.83740      0.78623      0.94568  1.0000
  O2          0.18269      0.09468      0.27787  1.0000
  O2          0.89030      0.13432      0.61374  1.0000
  O2          0.18121      0.12007      0.83430  1.0000
  O2          0.89460      0.80619      0.50248  1.0000
  O2          0.83853      0.08829      0.16496  1.0000
  O2          0.75764      0.88785      0.33221  1.0000
  O2          0.05098      0.21157      0.00118  1.0000
  O2          0.09864      0.91880      0.67120  1.0000
  O2          0.89462      0.85962      0.72358  1.0000
  O2          0.10314      0.06449      0.05517  1.0000
  O2          0.90146      0.07260      0.38845  1.0000
  O2          0.03054      0.12906      0.22029  1.0000
  O2          0.83415      0.94221      0.55745  1.0000
  O2          0.03231      0.92896      0.89029  1.0000
  O2          0.89641      0.21856      0.45087  1.0000
  O2          0.76540      0.69246      0.78682  1.0000
  O2          0.26596      0.09711      0.11908  1.0000
  O2          0.06118      0.79481      0.95337  1.0000
  O2          0.16649      0.30681      0.27923  1.0000
  O2          0.67497      0.91192      0.62244  1.0000
  O2          0.17120      0.89573      0.82991  1.0000
  O2          0.67409      0.80939      0.49325  1.0000
  O2          0.06364      0.30113      0.15959  1.0000
  O2          0.76807      0.10922      0.32525  1.0000
  O2          0.26526      0.20334      0.99304  1.0000
  O2          0.87692      0.70622      0.65937  1.0000
  O2          0.29352      0.64561      0.72284  1.0000
  O2          0.32009      0.67578      0.05597  1.0000
  O2          0.29284      0.67191      0.38714  1.0000
  O2          0.64050      0.35381      0.22129  1.0000
  O3          0.60337      0.31164      0.56634  1.0000
  O2          0.64568      0.32382      0.89246  1.0000
  O1          0.35634      0.32153      0.44035  1.0000
  O2          0.63922      0.03744      0.78197  1.0000
  O2          0.92134      0.62613      0.11069  1.0000
  O2          0.58836      0.66831      0.94262  1.0000
  O2          0.29825      0.96060      0.27632  1.0000
  O2          0.01986      0.38471      0.60879  1.0000
  O2          0.29654      0.36846      0.83508  1.0000
  O2          0.01620      0.67644      0.50324  1.0000
  O2          0.59128      0.95639      0.16768  1.0000
  O3          0.65509      0.64439      0.33228  1.0000
  O2          0.92122      0.32991      0.00265  1.0000
  O2          0.34714      0.04695      0.67402  1.0000
  O3          0.74657      0.29450      0.48206  1.0000
  O2          0.66497      0.46252      0.81821  1.0000
  O2          0.49773      0.22728      0.14881  1.0000
  O2          0.19307      0.69461      0.98369  1.0000
  O2          0.28092      0.53966      0.31398  1.0000
  O2          0.44157      0.77898      0.65160  1.0000
  O2          0.26855      0.76295      0.79658  1.0000
  O2          0.44522      0.70829      0.45698  1.0000
  O2          0.19629      0.53278      0.12856  1.0000
  O2          0.66565      0.23443      0.29334  1.0000
  O2          0.49715      0.30420      0.96348  1.0000
  O2          0.74361      0.47304      0.63085  1.0000
  O3          0.75911      0.55473      0.49694  1.0000
  O2          0.43322      0.24582      0.83557  1.0000
  O2          0.71477      0.21509      0.16654  1.0000
  O2          0.18025      0.46318      0.00115  1.0000
  O2          0.50511      0.74753      0.33662  1.0000
  O2          0.21995      0.78870      0.67023  1.0000
  O2          0.50190      0.77999      0.77969  1.0000
  O3          0.23888      0.47704      0.44341  1.0000
  O2          0.17999      0.74826      0.11112  1.0000
  O2          0.43439      0.21740      0.27840  1.0000
  O2          0.71318      0.53530      0.94664  1.0000
  O2          0.76532      0.26208      0.61352  1.0000
  O3          0.20337      0.32729      0.36337  1.0000
  O2          0.64849      0.90891      0.70760  1.0000
  O2          0.05456      0.76633      0.03787  1.0000
  O2          0.73422      0.67284      0.87148  1.0000
  O2          0.29082      0.09478      0.20386  1.0000
  O2          0.88587      0.24220      0.53871  1.0000
  O2          0.28856      0.22996      0.90850  1.0000
  O2          0.86986      0.67338      0.57378  1.0000
  O2          0.73568      0.09352      0.24016  1.0000
  O2          0.65352      0.76554      0.40730  1.0000
  O2          0.05684      0.32337      0.07523  1.0000
  O2          0.20307      0.90947      0.74549  1.0000
  O3          0.55857      0.57038      0.46676  1.0000
  O2          0.41046      0.01893      0.80281  1.0000
  O2          0.93820      0.41457      0.13068  1.0000
  O2          0.37514      0.43994      0.96277  1.0000
  O2          0.52910      0.97560      0.29583  1.0000
  O2          0.99762      0.59095      0.62582  1.0000
  O2          0.52579      0.58260      0.81548  1.0000
  O2          0.00061      0.44933      0.48397  1.0000
  O2          0.37408      0.96851      0.14825  1.0000
  O3          0.40661      0.40816      0.30710  1.0000
  O2          0.93442      0.55773      0.98261  1.0000
  O2          0.56485      0.03669      0.65445  1.0000
  O2          0.55149      0.16198      0.73089  1.0000
  O2          0.80000      0.41778      0.05711  1.0000
  O1          0.58716      0.42223      0.39108  1.0000
  O2          0.38320      0.83462      0.22233  1.0000
  O2          0.13599      0.58856      0.55537  1.0000
  O2          0.38027      0.57807      0.88866  1.0000
  F           0.42123      0.90287      0.72496  1.0000
  F           0.06069      0.54668      0.05546  1.0000
  F           0.44575      0.52110      0.38241  1.0000
  F           0.51052      0.08961      0.22115  1.0000
  F           0.84276      0.44758      0.54976  1.0000
  F           0.51340      0.44881      0.88886  1.0000
