data_cif

_audit_creation_method             'generated by GULP'

_symmetry_space_group_name_H-M     'P 1'
_symmetry_Int_Tables_number        1
_symmetry_cell_setting             triclinic

_cell_length_a                       11.9517
_cell_length_b                       12.0030
_cell_length_c                       29.5232
_cell_angle_alpha                   89.7166
_cell_angle_beta                    89.7641
_cell_angle_gamma                  119.9504

loop_
_atom_site_label
_atom_site_fract_x
_atom_site_fract_y
_atom_site_fract_z
_atom_site_occupancy
  Ge          0.69552      0.38696      0.51548  1.0000
  Si          0.63703      0.33620      0.84791  1.0000
  Si          0.68224      0.29364      0.17466  1.0000
  Si          0.31333      0.62822      0.01644  1.0000
  Si          0.38525      0.68689      0.34932  1.0000
  Si          0.34067      0.71659      0.68480  1.0000
  Si          0.39487      0.71550      0.78483  1.0000
  Si          0.33267      0.62639      0.45124  1.0000
  Si          0.30133      0.67572      0.11688  1.0000
  Si          0.63585      0.30792      0.27492  1.0000
  Si          0.69118      0.38742      0.94802  1.0000
  Ge          0.72919      0.34536      0.61467  1.0000
  Ge          0.53424      0.43260      0.44093  1.0000
  Si          0.60004      0.12509      0.78451  1.0000
  Si          0.89563      0.47074      0.11177  1.0000
  Si          0.48593      0.59021      0.95144  1.0000
  Si          0.42631      0.90000      0.28401  1.0000
  Si          0.12802      0.54115      0.62067  1.0000
  Si          0.43305      0.54299      0.84982  1.0000
  Si          0.12167      0.59007      0.51777  1.0000
  Si          0.47031      0.88367      0.18271  1.0000
  Ge          0.59570      0.47663      0.34089  1.0000
  Si          0.90333      0.42377      0.01067  1.0000
  Si          0.55231      0.13103      0.68218  1.0000
  Si          0.30519      0.40693      0.33021  1.0000
  Si          0.61926      0.91702      0.66979  1.0000
  Si          0.11283      0.70541      0.99917  1.0000
  Si          0.71502      0.61484      0.83449  1.0000
  Si          0.40156      0.09422      0.16622  1.0000
  Si          0.90428      0.30486      0.50497  1.0000
  Si          0.41368      0.30969      0.96465  1.0000
  Si          0.91548      0.61712      0.63621  1.0000
  Si          0.70796      0.10623      0.29437  1.0000
  Si          0.61813      0.70662      0.46706  1.0000
  Si          0.10074      0.39670      0.12933  1.0000
  Si          0.31925      0.91635      0.79953  1.0000
  Si          0.25421      0.33991      0.43263  1.0000
  Si          0.67578      0.92308      0.77030  1.0000
  Si          0.09481      0.74968      0.09966  1.0000
  Si          0.76504      0.66810      0.93516  1.0000
  Si          0.35116      0.10256      0.26698  1.0000
  Si          0.92545      0.25737      0.60704  1.0000
  Si          0.35563      0.26400      0.86413  1.0000
  Si          0.92073      0.67282      0.53311  1.0000
  Si          0.75146      0.08470      0.19405  1.0000
  Si          0.67362      0.75749      0.36389  1.0000
  Si          0.10334      0.34598      0.02869  1.0000
  Si          0.27246      0.92713      0.69925  1.0000
  Si          0.97119      0.12914      0.44999  1.0000
  Si          0.89597      0.86499      0.78483  1.0000
  Si          0.15434      0.02773      0.11551  1.0000
  Si          0.04479      0.88663      0.95008  1.0000
  Si          0.12681      0.15926      0.28214  1.0000
  Si          0.86824      0.98251      0.61851  1.0000
  Si          0.13863      0.98490      0.84966  1.0000
  Si          0.86242      0.89201      0.51703  1.0000
  Si          0.03172      0.14793      0.18083  1.0000
  Si          0.88503      0.04162      0.34820  1.0000
  Si          0.16453      0.12802      0.01490  1.0000
  Si          0.99474      0.86903      0.68470  1.0000
  O2          0.93840      0.00860      0.48201  1.0000
  O2          0.01652      0.94272      0.81762  1.0000
  O2          0.07598      0.06790      0.14966  1.0000
  O2          0.08485      0.00531      0.98350  1.0000
  O2          0.01067      0.07948      0.31746  1.0000
  O2          0.94927      0.93861      0.64904  1.0000
  O2          0.35641      0.59246      0.81791  1.0000
  O2          0.41954      0.75671      0.15175  1.0000
  O2          0.24641      0.66142      0.48429  1.0000
  O3          0.67814      0.43866      0.30090  1.0000
  O3          0.59694      0.25253      0.65184  1.0000
  O2          0.77892      0.34765      0.97850  1.0000
  O1          0.58185      0.34752      0.47621  1.0000
  O2          0.76367      0.41498      0.14133  1.0000
  O2          0.67614      0.25190      0.81585  1.0000
  O2          0.43860      0.66660      0.98473  1.0000
  O2          0.25520      0.59435      0.65178  1.0000
  O2          0.35146      0.77744      0.31853  1.0000
  O2          0.12410      0.21993      0.45200  1.0000
  O2          0.80283      0.92531      0.79073  1.0000
  O2          0.08981      0.87341      0.11933  1.0000
  O2          0.89079      0.79330      0.95553  1.0000
  O2          0.22649      0.10583      0.28757  1.0000
  O2          0.93972      0.13623      0.62408  1.0000
  O2          0.22895      0.13892      0.84427  1.0000
  O2          0.92834      0.80341      0.51331  1.0000
  O2          0.87719      0.08159      0.17470  1.0000
  O2          0.79171      0.88916      0.34326  1.0000
  O2          0.10423      0.22114      0.00842  1.0000
  O2          0.14871      0.93307      0.67942  1.0000
  O2          0.95158      0.88523      0.73434  1.0000
  O2          0.14584      0.07566      0.06589  1.0000
  O2          0.92627      0.07947      0.39954  1.0000
  O2          0.06927      0.13745      0.23214  1.0000
  O2          0.87494      0.94582      0.56694  1.0000
  O2          0.08472      0.94448      0.90019  1.0000
  O2          0.90511      0.21015      0.46582  1.0000
  O2          0.81398      0.71285      0.79624  1.0000
  O2          0.30493      0.09342      0.12791  1.0000
  O2          0.11663      0.80586      0.96128  1.0000
  O2          0.20139      0.31170      0.29295  1.0000
  O2          0.71724      0.91509      0.63168  1.0000
  O2          0.22109      0.91583      0.83799  1.0000
  O2          0.71088      0.81165      0.50412  1.0000
  O2          0.09947      0.29847      0.16780  1.0000
  O2          0.80862      0.11403      0.33263  1.0000
  O2          0.31681      0.20907      0.00303  1.0000
  O2          0.92869      0.71833      0.67445  1.0000
  O2          0.33684      0.65619      0.73492  1.0000
  O2          0.36540      0.68098      0.06740  1.0000
  O2          0.33503      0.68317      0.40084  1.0000
  O2          0.68856      0.35529      0.22383  1.0000
  O1          0.63134      0.32999      0.56786  1.0000
  O2          0.69243      0.33285      0.89788  1.0000
  O3          0.36663      0.32117      0.45099  1.0000
  O2          0.68546      0.05436      0.78883  1.0000
  O2          0.96152      0.62575      0.11707  1.0000
  O2          0.64234      0.67716      0.95421  1.0000
  O2          0.34118      0.97136      0.28740  1.0000
  O2          0.05773      0.38591      0.62272  1.0000
  O2          0.34566      0.38715      0.84694  1.0000
  O2          0.05371      0.67732      0.51680  1.0000
  O2          0.62670      0.95054      0.17910  1.0000
  O3          0.69079      0.64556      0.34298  1.0000
  O2          0.97296      0.33710      0.00894  1.0000
  O2          0.39440      0.05749      0.68111  1.0000
  O3          0.77364      0.30213      0.49701  1.0000
  O2          0.71299      0.48052      0.82626  1.0000
  O2          0.53626      0.22389      0.15516  1.0000
  O2          0.24791      0.70575      0.99388  1.0000
  O2          0.30740      0.54352      0.32850  1.0000
  O2          0.48455      0.78293      0.66237  1.0000
  O2          0.31954      0.78279      0.80789  1.0000
  O2          0.47714      0.69749      0.47140  1.0000
  O2          0.23243      0.53134      0.13852  1.0000
  O2          0.70818      0.24025      0.29997  1.0000
  O2          0.54879      0.31096      0.97174  1.0000
  O3          0.78413      0.49053      0.64619  1.0000
  O3          0.80036      0.55481      0.51137  1.0000
  O2          0.48090      0.26433      0.84353  1.0000
  O2          0.75087      0.20646      0.17110  1.0000
  O2          0.23125      0.47306      0.01101  1.0000
  O2          0.53849      0.74343      0.34702  1.0000
  O2          0.26647      0.79835      0.67957  1.0000
  O2          0.55125      0.79517      0.78982  1.0000
  O2          0.26446      0.47216      0.45154  1.0000
  O2          0.22000      0.75084      0.12069  1.0000
  O2          0.47866      0.23107      0.28402  1.0000
  O2          0.76690      0.54278      0.95425  1.0000
  O3          0.80073      0.24785      0.62865  1.0000
  O2          0.24426      0.33374      0.37769  1.0000
  O2          0.69390      0.92169      0.71606  1.0000
  O2          0.10162      0.77115      0.04551  1.0000
  O2          0.78485      0.68702      0.88094  1.0000
  O2          0.33116      0.09814      0.21279  1.0000
  O2          0.91749      0.24340      0.55202  1.0000
  O2          0.33901      0.24179      0.91841  1.0000
  O2          0.91693      0.68330      0.58756  1.0000
  O2          0.77490      0.09584      0.24808  1.0000
  O2          0.68643      0.76949      0.41830  1.0000
  O2          0.10061      0.32541      0.08298  1.0000
  O2          0.24882      0.92069      0.75344  1.0000
  O3          0.60885      0.57349      0.47670  1.0000
  O2          0.45835      0.04172      0.80792  1.0000
  O2          0.97403      0.40981      0.13690  1.0000
  O2          0.42709      0.44817      0.97426  1.0000
  O2          0.56937      0.98067      0.30579  1.0000
  O2          0.03764      0.59345      0.64056  1.0000
  O2          0.57499      0.60038      0.82683  1.0000
  O2          0.02735      0.44902      0.49798  1.0000
  O2          0.41276      0.96697      0.15970  1.0000
  O3          0.44325      0.42822      0.31776  1.0000
  O2          0.99089      0.56591      0.98859  1.0000
  O2          0.60371      0.03996      0.66011  1.0000
  O2          0.60267      0.17611      0.73380  1.0000
  O2          0.84685      0.42217      0.06086  1.0000
  O1          0.60234      0.40993      0.39060  1.0000
  O2          0.41986      0.83791      0.23453  1.0000
  O2          0.17143      0.58724      0.56839  1.0000
  O2          0.43293      0.59298      0.90103  1.0000
  F           0.46574      0.90959      0.73548  1.0000
  F           0.10608      0.55177      0.06562  1.0000
  F           0.48400      0.52933      0.40325  1.0000
  F           0.55290      0.09885      0.23197  1.0000
  F           0.87267      0.43689      0.57500  1.0000
  F           0.56453      0.46202      0.90075  1.0000
