data_cif

_audit_creation_method             'generated by GULP'

_symmetry_space_group_name_H-M     'P 1'
_symmetry_Int_Tables_number        1
_symmetry_cell_setting             triclinic

_cell_length_a                       11.9212
_cell_length_b                       12.0211
_cell_length_c                       29.4792
_cell_angle_alpha                   90.2573
_cell_angle_beta                    90.1946
_cell_angle_gamma                  119.8698

loop_
_atom_site_label
_atom_site_fract_x
_atom_site_fract_y
_atom_site_fract_z
_atom_site_occupancy
  Ge          0.69552      0.38696      0.51548  1.0000
  Si          0.59880      0.32467      0.84248  1.0000
  Si          0.65446      0.30320      0.17249  1.0000
  Si          0.27333      0.62273      0.00761  1.0000
  Si          0.35864      0.69084      0.33747  1.0000
  Si          0.30391      0.71002      0.67422  1.0000
  Si          0.35444      0.69900      0.77462  1.0000
  Si          0.30549      0.62974      0.43953  1.0000
  Si          0.27539      0.67962      0.10831  1.0000
  Si          0.61082      0.31780      0.27421  1.0000
  Si          0.65348      0.38330      0.94273  1.0000
  Si          0.67205      0.32341      0.61377  1.0000
  Ge          0.52621      0.42585      0.44376  1.0000
  Si          0.56102      0.10939      0.78092  1.0000
  Si          0.86522      0.47490      0.10848  1.0000
  Si          0.44294      0.58365      0.94112  1.0000
  Si          0.40204      0.90615      0.27465  1.0000
  Si          0.09413      0.53875      0.60730  1.0000
  Si          0.39236      0.52686      0.83928  1.0000
  Si          0.08882      0.58666      0.50429  1.0000
  Si          0.44550      0.89345      0.17344  1.0000
  Ge          0.56211      0.48413      0.34152  1.0000
  Si          0.86584      0.42193      0.00706  1.0000
  Si          0.50937      0.11470      0.67972  1.0000
  Ge          0.28263      0.40744      0.31969  1.0000
  Si          0.58322      0.91022      0.66109  1.0000
  Si          0.07224      0.70065      0.99254  1.0000
  Si          0.67437      0.59938      0.82586  1.0000
  Si          0.37555      0.10250      0.15904  1.0000
  Si          0.87811      0.29904      0.49036  1.0000
  Si          0.37341      0.30462      0.95567  1.0000
  Si          0.87710      0.60811      0.62116  1.0000
  Si          0.68440      0.11204      0.28782  1.0000
  Si          0.58875      0.71345      0.45584  1.0000
  Si          0.07479      0.40214      0.12304  1.0000
  Si          0.27892      0.90019      0.79202  1.0000
  Si          0.23931      0.34429      0.42282  1.0000
  Si          0.63679      0.90882      0.76199  1.0000
  Si          0.06543      0.75213      0.09319  1.0000
  Si          0.72359      0.66174      0.92654  1.0000
  Si          0.32649      0.10755      0.25988  1.0000
  Si          0.89009      0.25738      0.59380  1.0000
  Si          0.31604      0.25014      0.85493  1.0000
  Si          0.88570      0.67022      0.51855  1.0000
  Si          0.72523      0.09444      0.18711  1.0000
  Si          0.64759      0.76256      0.35312  1.0000
  Si          0.06634      0.34318      0.02223  1.0000
  Si          0.22961      0.91498      0.69155  1.0000
  Si          0.96026      0.13031      0.43984  1.0000
  Si          0.85413      0.84539      0.77552  1.0000
  Si          0.12670      0.03107      0.10679  1.0000
  Si          0.00369      0.87999      0.94160  1.0000
  Si          0.09730      0.15831      0.27123  1.0000
  Si          0.83170      0.98119      0.60911  1.0000
  Si          0.09870      0.96948      0.84097  1.0000
  Si          0.83675      0.89588      0.50690  1.0000
  Si          0.00314      0.15161      0.17096  1.0000
  Si          0.86303      0.04333      0.33862  1.0000
  Si          0.12630      0.12404      0.00616  1.0000
  Si          0.94980      0.85576      0.67413  1.0000
  O2          0.92120      0.01347      0.47416  1.0000
  O2          0.97867      0.92584      0.80698  1.0000
  O2          0.04250      0.07396      0.13638  1.0000
  O2          0.04542      0.00386      0.97288  1.0000
  O2          0.98033      0.07530      0.30526  1.0000
  O2          0.91244      0.93912      0.64148  1.0000
  O2          0.31581      0.57479      0.80595  1.0000
  O2          0.39698      0.76626      0.14164  1.0000
  O2          0.21466      0.66006      0.47223  1.0000
  O3          0.65204      0.43797      0.30498  1.0000
  O2          0.56336      0.24636      0.65165  1.0000
  O2          0.73826      0.34499      0.97520  1.0000
  O1          0.55818      0.34501      0.48359  1.0000
  O2          0.73852      0.42544      0.13986  1.0000
  O2          0.63833      0.23509      0.81284  1.0000
  O2          0.39456      0.65999      0.97379  1.0000
  O2          0.21976      0.59017      0.63966  1.0000
  O2          0.32579      0.78466      0.30851  1.0000
  O2          0.11234      0.22464      0.44580  1.0000
  O2          0.76224      0.90717      0.78235  1.0000
  O2          0.06509      0.87809      0.11301  1.0000
  O2          0.84904      0.78913      0.94656  1.0000
  O2          0.20294      0.11287      0.28025  1.0000
  O2          0.89375      0.13477      0.61484  1.0000
  O2          0.19005      0.12263      0.83499  1.0000
  O2          0.90147      0.80624      0.50271  1.0000
  O2          0.84920      0.09216      0.16551  1.0000
  O2          0.76565      0.89265      0.33357  1.0000
  O2          0.06350      0.21559      0.00225  1.0000
  O2          0.10466      0.91854      0.67135  1.0000
  O2          0.90235      0.86019      0.72422  1.0000
  O2          0.11627      0.06727      0.05553  1.0000
  O2          0.91884      0.07696      0.38937  1.0000
  O2          0.04147      0.12769      0.22040  1.0000
  O2          0.84523      0.94588      0.55796  1.0000
  O2          0.04287      0.93110      0.89094  1.0000
  O2          0.88634      0.20683      0.45257  1.0000
  O2          0.77336      0.69457      0.78745  1.0000
  O2          0.27736      0.10280      0.12066  1.0000
  O2          0.07364      0.79876      0.95432  1.0000
  O3          0.16265      0.30757      0.28067  1.0000
  O2          0.68032      0.91146      0.62218  1.0000
  O2          0.18089      0.89870      0.83037  1.0000
  O2          0.68550      0.81821      0.49321  1.0000
  O2          0.07514      0.30441      0.16101  1.0000
  O2          0.78573      0.11786      0.32645  1.0000
  O2          0.27768      0.20720      0.99377  1.0000
  O2          0.88175      0.70691      0.65949  1.0000
  O2          0.30080      0.64661      0.72332  1.0000
  O2          0.33278      0.67971      0.05791  1.0000
  O2          0.30423      0.68106      0.38902  1.0000
  O2          0.65744      0.36253      0.22203  1.0000
  O3          0.60520      0.31167      0.56648  1.0000
  O2          0.65617      0.32693      0.89270  1.0000
  O3          0.35569      0.32963      0.44054  1.0000
  O2          0.64789      0.03963      0.78209  1.0000
  O2          0.93348      0.63041      0.11146  1.0000
  O2          0.59968      0.67142      0.94359  1.0000
  O2          0.31392      0.97413      0.27798  1.0000
  O2          0.02316      0.38380      0.60956  1.0000
  O2          0.30521      0.37117      0.83589  1.0000
  O2          0.01868      0.67225      0.50295  1.0000
  O2          0.60200      0.96181      0.16927  1.0000
  O3          0.66779      0.65136      0.33378  1.0000
  O2          0.93394      0.33397      0.00345  1.0000
  O2          0.35302      0.04666      0.67415  1.0000
  O3          0.74529      0.29313      0.48226  1.0000
  O2          0.67370      0.46507      0.81859  1.0000
  O2          0.51056      0.23318      0.14983  1.0000
  O2          0.20590      0.69868      0.98517  1.0000
  O3          0.28309      0.55210      0.31486  1.0000
  O2          0.44727      0.77892      0.65175  1.0000
  O2          0.27746      0.76539      0.79707  1.0000
  O2          0.45098      0.71063      0.45969  1.0000
  O2          0.20860      0.53675      0.13032  1.0000
  O2          0.68562      0.24524      0.29420  1.0000
  O2          0.50909      0.30774      0.96401  1.0000
  O2          0.74722      0.47402      0.63085  1.0000
  O3          0.76147      0.55475      0.49711  1.0000
  O2          0.44225      0.24871      0.83592  1.0000
  O2          0.72778      0.22056      0.16739  1.0000
  O2          0.19314      0.46718      0.00266  1.0000
  O2          0.51342      0.75163      0.33582  1.0000
  O2          0.22569      0.78840      0.67059  1.0000
  O2          0.51053      0.78210      0.77994  1.0000
  O2          0.25051      0.47799      0.44096  1.0000
  O2          0.19196      0.75228      0.11252  1.0000
  O2          0.45370      0.22984      0.27979  1.0000
  O2          0.72487      0.53853      0.94724  1.0000
  O2          0.76858      0.26293      0.61440  1.0000
  O3          0.20955      0.32655      0.36972  1.0000
  O2          0.65567      0.91021      0.70759  1.0000
  O2          0.06659      0.77014      0.03885  1.0000
  O2          0.74426      0.67548      0.87221  1.0000
  O2          0.30575      0.10630      0.20551  1.0000
  O2          0.88508      0.24000      0.53957  1.0000
  O2          0.29903      0.23330      0.90916  1.0000
  O2          0.87543      0.67365      0.57388  1.0000
  O2          0.75031      0.10039      0.24127  1.0000
  O2          0.65817      0.77274      0.40810  1.0000
  O2          0.06946      0.32745      0.07649  1.0000
  O2          0.21044      0.91050      0.74583  1.0000
  O3          0.56860      0.57737      0.46689  1.0000
  O2          0.41948      0.02146      0.80301  1.0000
  O2          0.95063      0.41898      0.13162  1.0000
  O2          0.38678      0.44335      0.96374  1.0000
  O2          0.54489      0.98715      0.29761  1.0000
  O2          0.00182      0.59031      0.62636  1.0000
  O2          0.53429      0.58513      0.81638  1.0000
  O2          0.00083      0.44396      0.48407  1.0000
  O2          0.38413      0.97400      0.15041  1.0000
  O1          0.42262      0.41443      0.30613  1.0000
  O2          0.94720      0.56152      0.98324  1.0000
  O2          0.57056      0.03673      0.65432  1.0000
  O2          0.55920      0.16312      0.73086  1.0000
  O2          0.81256      0.42209      0.05756  1.0000
  O1          0.59020      0.42467      0.39211  1.0000
  O2          0.39583      0.84358      0.22477  1.0000
  O2          0.13797      0.58499      0.55568  1.0000
  O2          0.38992      0.58084      0.88981  1.0000
  F           0.42856      0.90393      0.72515  1.0000
  F           0.07352      0.55082      0.05664  1.0000
  F           0.45413      0.52915      0.38010  1.0000
  F           0.52552      0.09886      0.22244  1.0000
  F           0.84422      0.44650      0.54978  1.0000
  F           0.52351      0.45176      0.88958  1.0000
