data_cif

_audit_creation_method             'generated by GULP'

_symmetry_space_group_name_H-M     'P 1'
_symmetry_Int_Tables_number        1
_symmetry_cell_setting             triclinic

_cell_length_a                       11.9799
_cell_length_b                       11.9556
_cell_length_c                       29.4664
_cell_angle_alpha                   90.1892
_cell_angle_beta                    90.0486
_cell_angle_gamma                  119.8140

loop_
_atom_site_label
_atom_site_fract_x
_atom_site_fract_y
_atom_site_fract_z
_atom_site_occupancy
  Ge          0.69552      0.38696      0.51548  1.0000
  Si          0.63449      0.32805      0.85016  1.0000
  Si          0.69090      0.30291      0.17841  1.0000
  Si          0.31139      0.62661      0.01527  1.0000
  Si          0.39737      0.69393      0.34812  1.0000
  Si          0.34066      0.71183      0.68209  1.0000
  Si          0.39278      0.70589      0.78270  1.0000
  Si          0.34474      0.64885      0.45042  1.0000
  Si          0.31032      0.68152      0.11598  1.0000
  Si          0.64271      0.31113      0.27907  1.0000
  Si          0.68909      0.38492      0.95049  1.0000
  Si          0.71353      0.32966      0.61897  1.0000
  Ge          0.52936      0.44292      0.44747  1.0000
  Si          0.59686      0.11526      0.78673  1.0000
  Si          0.90236      0.47685      0.11526  1.0000
  Si          0.48308      0.58841      0.94993  1.0000
  Si          0.43715      0.90404      0.28223  1.0000
  Si          0.13219      0.54183      0.61495  1.0000
  Si          0.43111      0.53458      0.84811  1.0000
  Si          0.12849      0.59932      0.51206  1.0000
  Si          0.48287      0.89334      0.18082  1.0000
  Ge          0.59939      0.47530      0.34827  1.0000
  Si          0.90188      0.42325      0.01386  1.0000
  Si          0.54713      0.12048      0.68519  1.0000
  Si          0.31089      0.40878      0.33369  1.0000
  Si          0.61925      0.91204      0.66889  1.0000
  Si          0.11002      0.70327      0.00024  1.0000
  Si          0.71158      0.60549      0.83480  1.0000
  Si          0.41237      0.10355      0.16645  1.0000
  Ge          0.90829      0.32479      0.50605  1.0000
  Si          0.41135      0.30759      0.96474  1.0000
  Si          0.91833      0.61251      0.63063  1.0000
  Si          0.71825      0.10888      0.29559  1.0000
  Si          0.62512      0.72419      0.46863  1.0000
  Si          0.10964      0.40356      0.13061  1.0000
  Si          0.31642      0.90735      0.79948  1.0000
  Si          0.25222      0.35468      0.43609  1.0000
  Si          0.67396      0.91411      0.76975  1.0000
  Si          0.10235      0.75496      0.10086  1.0000
  Si          0.76180      0.66592      0.93549  1.0000
  Si          0.35921      0.10581      0.26737  1.0000
  Si          0.92821      0.25807      0.60279  1.0000
  Si          0.35387      0.25584      0.86392  1.0000
  Si          0.92143      0.67467      0.52837  1.0000
  Si          0.76222      0.09369      0.19464  1.0000
  Si          0.68312      0.76211      0.36550  1.0000
  Si          0.10285      0.34608      0.02978  1.0000
  Si          0.26862      0.92016      0.69891  1.0000
  Si          0.96992      0.14003      0.45180  1.0000
  Si          0.89235      0.85260      0.78470  1.0000
  Si          0.16386      0.03493      0.11628  1.0000
  Si          0.04170      0.88354      0.95021  1.0000
  Si          0.13470      0.16117      0.28323  1.0000
  Si          0.86924      0.98424      0.61978  1.0000
  Si          0.13608      0.97575      0.84954  1.0000
  Si          0.87240      0.90432      0.51731  1.0000
  Si          0.04150      0.15598      0.18169  1.0000
  Si          0.89622      0.04393      0.34958  1.0000
  Si          0.16420      0.12768      0.01529  1.0000
  Si          0.98954      0.85935      0.68382  1.0000
  O2          0.95176      0.02223      0.48396  1.0000
  O2          0.01405      0.93310      0.81712  1.0000
  O2          0.08547      0.07625      0.14982  1.0000
  O2          0.08402      0.00486      0.98316  1.0000
  O2          0.01834      0.07943      0.31750  1.0000
  O2          0.94804      0.94032      0.65205  1.0000
  O2          0.35463      0.58220      0.81498  1.0000
  O2          0.43265      0.76615      0.14903  1.0000
  O2          0.25828      0.68696      0.48212  1.0000
  O3          0.68301      0.43630      0.30883  1.0000
  O2          0.59867      0.24917      0.65499  1.0000
  O2          0.77506      0.34615      0.98227  1.0000
  O1          0.56180      0.35602      0.48816  1.0000
  O2          0.77463      0.42605      0.14614  1.0000
  O2          0.67366      0.24095      0.81898  1.0000
  O2          0.43382      0.66493      0.98244  1.0000
  O2          0.25712      0.59242      0.64756  1.0000
  O2          0.36246      0.77995      0.31536  1.0000
  O2          0.12040      0.24603      0.45710  1.0000
  O2          0.80001      0.91433      0.79004  1.0000
  O2          0.10099      0.88072      0.12100  1.0000
  O2          0.88774      0.79294      0.95535  1.0000
  O2          0.23346      0.10621      0.28766  1.0000
  O2          0.92862      0.13695      0.62810  1.0000
  O2          0.22764      0.12958      0.84382  1.0000
  O2          0.92947      0.80764      0.51161  1.0000
  O2          0.88787      0.09208      0.17477  1.0000
  O2          0.80250      0.89066      0.34437  1.0000
  O2          0.10181      0.21929      0.00945  1.0000
  O2          0.14334      0.92262      0.67912  1.0000
  O2          0.94611      0.86598      0.73435  1.0000
  O2          0.15042      0.07632      0.06604  1.0000
  O2          0.94312      0.08394      0.40042  1.0000
  O2          0.07809      0.14320      0.23286  1.0000
  O2          0.88892      0.95224      0.56891  1.0000
  O2          0.08244      0.93788      0.89997  1.0000
  O3          0.89063      0.20555      0.46437  1.0000
  O2          0.81066      0.70109      0.79658  1.0000
  O2          0.31498      0.10359      0.12813  1.0000
  O2          0.11108      0.80098      0.96184  1.0000
  O2          0.20958      0.31310      0.29539  1.0000
  O2          0.71670      0.91119      0.63075  1.0000
  O2          0.21760      0.90500      0.83778  1.0000
  O2          0.72047      0.83129      0.50525  1.0000
  O2          0.11076      0.30730      0.16923  1.0000
  O2          0.81796      0.11509      0.33393  1.0000
  O2          0.31528      0.20946      0.00304  1.0000
  O2          0.92143      0.70918      0.66967  1.0000
  O2          0.33803      0.65049      0.73184  1.0000
  O2          0.36830      0.68256      0.06577  1.0000
  O2          0.34505      0.69606      0.39868  1.0000
  O2          0.69512      0.36267      0.22820  1.0000
  O3          0.65088      0.32933      0.57171  1.0000
  O2          0.69048      0.32780      0.90044  1.0000
  O3          0.36243      0.33097      0.45395  1.0000
  O2          0.68376      0.04574      0.78911  1.0000
  O2          0.97037      0.63289      0.11906  1.0000
  O2          0.63897      0.67608      0.95323  1.0000
  O2          0.35072      0.97390      0.28614  1.0000
  O2          0.06070      0.38648      0.61858  1.0000
  O2          0.34401      0.37828      0.84542  1.0000
  O2          0.05572      0.68350      0.51260  1.0000
  O2          0.63868      0.96054      0.17747  1.0000
  O3          0.69529      0.64452      0.34662  1.0000
  O2          0.97092      0.33584      0.01093  1.0000
  O2          0.39122      0.05188      0.68096  1.0000
  O1          0.76084      0.30461      0.48960  1.0000
  O2          0.71011      0.47045      0.82734  1.0000
  O2          0.54665      0.23478      0.15704  1.0000
  O2          0.24355      0.70236      0.99304  1.0000
  O2          0.32192      0.54900      0.32784  1.0000
  O2          0.48402      0.78022      0.66020  1.0000
  O2          0.31621      0.77255      0.80539  1.0000
  O2          0.48946      0.72540      0.47046  1.0000
  O2          0.24268      0.53825      0.13818  1.0000
  O2          0.71624      0.24198      0.30214  1.0000
  O2          0.54621      0.30969      0.97279  1.0000
  O2          0.78975      0.47681      0.63867  1.0000
  O3          0.79982      0.55517      0.50769  1.0000
  O2          0.47885      0.25414      0.84447  1.0000
  O2          0.76208      0.21797      0.17363  1.0000
  O2          0.22938      0.47066      0.01047  1.0000
  O2          0.55014      0.75069      0.34734  1.0000
  O2          0.26509      0.79283      0.67854  1.0000
  O2          0.54829      0.78718      0.78824  1.0000
  O2          0.28050      0.49530      0.45415  1.0000
  O2          0.22858      0.75606      0.12056  1.0000
  O2          0.48591      0.23254      0.28611  1.0000
  O2          0.76259      0.54101      0.95564  1.0000
  O2          0.80340      0.26384      0.62104  1.0000
  O2          0.24073      0.34451      0.38091  1.0000
  O2          0.69182      0.91358      0.71546  1.0000
  O2          0.10436      0.77366      0.04652  1.0000
  O2          0.78132      0.68118      0.88116  1.0000
  O2          0.34077      0.10459      0.21295  1.0000
  O3          0.92396      0.23044      0.55021  1.0000
  O2          0.33727      0.23709      0.91824  1.0000
  O2          0.91345      0.67602      0.58336  1.0000
  O2          0.78457      0.10048      0.24882  1.0000
  O2          0.69618      0.77924      0.41993  1.0000
  O2          0.10493      0.32880      0.08411  1.0000
  O2          0.24862      0.91665      0.75320  1.0000
  O3          0.60756      0.58896      0.48113  1.0000
  O2          0.45605      0.03035      0.80963  1.0000
  O2          0.98495      0.41889      0.13913  1.0000
  O2          0.42533      0.44738      0.97306  1.0000
  O2          0.57917      0.98349      0.30497  1.0000
  O2          0.04303      0.59623      0.63508  1.0000
  O2          0.57253      0.59165      0.82550  1.0000
  O3          0.05123      0.46380      0.48701  1.0000
  O2          0.42456      0.97666      0.15800  1.0000
  O3          0.44552      0.41834      0.32477  1.0000
  O2          0.98569      0.56397      0.99070  1.0000
  O2          0.60576      0.03836      0.66119  1.0000
  O2          0.59702      0.16999      0.73643  1.0000
  O2          0.84957      0.42415      0.06450  1.0000
  O1          0.60537      0.41580      0.39969  1.0000
  O2          0.43183      0.84429      0.23206  1.0000
  O2          0.17651      0.58982      0.56343  1.0000
  O2          0.43069      0.58838      0.89892  1.0000
  F           0.46637      0.90889      0.73385  1.0000
  F           0.10931      0.55378      0.06532  1.0000
  F           0.48832      0.53855      0.40583  1.0000
  F           0.56242      0.10444      0.23124  1.0000
  F           0.90836      0.43629      0.55419  1.0000
  F           0.56181      0.45700      0.89959  1.0000
