data_cif

_audit_creation_method             'generated by GULP'

_symmetry_space_group_name_H-M     'P 1'
_symmetry_Int_Tables_number        1
_symmetry_cell_setting             triclinic

_cell_length_a                       11.9189
_cell_length_b                       12.0374
_cell_length_c                       29.4401
_cell_angle_alpha                   90.2200
_cell_angle_beta                    90.5217
_cell_angle_gamma                  119.9053

loop_
_atom_site_label
_atom_site_fract_x
_atom_site_fract_y
_atom_site_fract_z
_atom_site_occupancy
  Ge          0.69552      0.38696      0.51548  1.0000
  Si          0.60348      0.32712      0.84281  1.0000
  Si          0.66590      0.31007      0.17486  1.0000
  Si          0.28025      0.62658      0.00779  1.0000
  Si          0.34650      0.67964      0.33803  1.0000
  Si          0.30536      0.71150      0.67441  1.0000
  Si          0.35778      0.70144      0.77492  1.0000
  Si          0.30147      0.62761      0.44031  1.0000
  Si          0.28456      0.68436      0.10859  1.0000
  Si          0.61179      0.32914      0.27750  1.0000
  Si          0.65933      0.38702      0.94324  1.0000
  Si          0.67236      0.32398      0.61382  1.0000
  Ge          0.52817      0.43024      0.44397  1.0000
  Si          0.56463      0.11129      0.78128  1.0000
  Si          0.87465      0.47907      0.10966  1.0000
  Si          0.44863      0.58671      0.94132  1.0000
  Si          0.39738      0.89664      0.27801  1.0000
  Si          0.09369      0.53950      0.60768  1.0000
  Si          0.39636      0.52909      0.83936  1.0000
  Si          0.08651      0.58698      0.50464  1.0000
  Si          0.45658      0.89461      0.17532  1.0000
  Ge          0.55345      0.49329      0.34331  1.0000
  Si          0.87216      0.42553      0.00796  1.0000
  Si          0.51117      0.11603      0.67996  1.0000
  Si          0.27314      0.40132      0.32036  1.0000
  Si          0.58491      0.91160      0.66119  1.0000
  Si          0.07840      0.70407      0.99297  1.0000
  Si          0.67859      0.60161      0.82602  1.0000
  Si          0.38439      0.10653      0.15989  1.0000
  Si          0.87748      0.29866      0.49016  1.0000
  Si          0.37954      0.30858      0.95590  1.0000
  Si          0.87685      0.60879      0.62122  1.0000
  Ge          0.66974      0.11584      0.28398  1.0000
  Si          0.58796      0.71748      0.45478  1.0000
  Si          0.08505      0.40728      0.12360  1.0000
  Si          0.28283      0.90242      0.79235  1.0000
  Si          0.23898      0.34536      0.42341  1.0000
  Si          0.63983      0.91080      0.76232  1.0000
  Si          0.07419      0.75584      0.09376  1.0000
  Si          0.72906      0.66469      0.92688  1.0000
  Si          0.32605      0.10548      0.26177  1.0000
  Si          0.89034      0.25818      0.59391  1.0000
  Si          0.32044      0.25274      0.85510  1.0000
  Si          0.88389      0.67103      0.51844  1.0000
  Si          0.74077      0.09839      0.18862  1.0000
  Si          0.64161      0.77032      0.35201  1.0000
  Si          0.07340      0.34695      0.02264  1.0000
  Si          0.23126      0.91640      0.69181  1.0000
  Si          0.95822      0.12955      0.43844  1.0000
  Si          0.85725      0.84728      0.77563  1.0000
  Si          0.13621      0.03454      0.10679  1.0000
  Si          0.00934      0.88319      0.94187  1.0000
  Si          0.09493      0.15367      0.27265  1.0000
  Si          0.83254      0.98254      0.60894  1.0000
  Si          0.10321      0.97188      0.84114  1.0000
  Si          0.83627      0.89785      0.50641  1.0000
  Si          0.01469      0.15764      0.17064  1.0000
  Si          0.85616      0.05172      0.33690  1.0000
  Si          0.13319      0.12793      0.00630  1.0000
  Si          0.95093      0.85692      0.67408  1.0000
  O2          0.92178      0.01489      0.47372  1.0000
  O2          0.98249      0.92771      0.80716  1.0000
  O2          0.05674      0.08034      0.13708  1.0000
  O2          0.05160      0.00739      0.97312  1.0000
  O2          0.97513      0.07234      0.30484  1.0000
  O2          0.91352      0.94025      0.64139  1.0000
  O2          0.31944      0.57705      0.80612  1.0000
  O2          0.40700      0.77060      0.14205  1.0000
  O2          0.21258      0.66012      0.47292  1.0000
  O3          0.63983      0.45330      0.30306  1.0000
  O2          0.56448      0.24722      0.65188  1.0000
  O2          0.74397      0.34871      0.97611  1.0000
  O1          0.55811      0.34722      0.48363  1.0000
  O2          0.74927      0.43051      0.14164  1.0000
  O2          0.64245      0.23728      0.81330  1.0000
  O2          0.40068      0.66341      0.97391  1.0000
  O2          0.22021      0.59135      0.64002  1.0000
  O2          0.30755      0.76623      0.30690  1.0000
  O2          0.11129      0.22349      0.44399  1.0000
  O2          0.76555      0.90896      0.78272  1.0000
  O2          0.07401      0.88200      0.11339  1.0000
  O2          0.85478      0.79243      0.94690  1.0000
  O2          0.19815      0.10442      0.28026  1.0000
  O2          0.89426      0.13586      0.61510  1.0000
  O2          0.19427      0.12496      0.83519  1.0000
  O2          0.89949      0.80677      0.50270  1.0000
  O2          0.86163      0.09993      0.16233  1.0000
  O2          0.75150      0.90111      0.33092  1.0000
  O2          0.06995      0.21913      0.00271  1.0000
  O2          0.10590      0.91957      0.67155  1.0000
  O2          0.90429      0.86187      0.72427  1.0000
  O2          0.12494      0.07106      0.05567  1.0000
  O2          0.91494      0.07535      0.38827  1.0000
  O2          0.04881      0.13279      0.22060  1.0000
  O2          0.84574      0.94797      0.55771  1.0000
  O2          0.04811      0.93398      0.89122  1.0000
  O2          0.88672      0.20772      0.45229  1.0000
  O2          0.77683      0.69659      0.78762  1.0000
  O2          0.28801      0.10417      0.12039  1.0000
  O2          0.07918      0.80188      0.95479  1.0000
  O2          0.16384      0.30513      0.28394  1.0000
  O2          0.68124      0.91264      0.62222  1.0000
  O2          0.18547      0.90135      0.83080  1.0000
  O2          0.68492      0.82195      0.49263  1.0000
  O2          0.08851      0.31059      0.16123  1.0000
  O3          0.78900      0.13074      0.32589  1.0000
  O2          0.28433      0.21139      0.99406  1.0000
  O2          0.88232      0.70804      0.65958  1.0000
  O2          0.30310      0.64871      0.72363  1.0000
  O2          0.34104      0.68395      0.05816  1.0000
  O2          0.29575      0.67573      0.38948  1.0000
  O2          0.66310      0.36432      0.22447  1.0000
  O3          0.60488      0.31166      0.56648  1.0000
  O2          0.66145      0.33014      0.89324  1.0000
  O3          0.35645      0.33375      0.44156  1.0000
  O2          0.65151      0.04161      0.78262  1.0000
  O2          0.94355      0.63452      0.11275  1.0000
  O2          0.60547      0.67446      0.94403  1.0000
  O2          0.31536      0.97204      0.27809  1.0000
  O2          0.02318      0.38479      0.61008  1.0000
  O2          0.30927      0.37348      0.83606  1.0000
  O2          0.01716      0.67310      0.50328  1.0000
  O2          0.61262      0.96516      0.17223  1.0000
  O3          0.66315      0.65904      0.33379  1.0000
  O2          0.94022      0.33771      0.00439  1.0000
  O2          0.35462      0.04794      0.67458  1.0000
  O3          0.74392      0.29216      0.48247  1.0000
  O2          0.67794      0.46740      0.81904  1.0000
  O2          0.52024      0.23651      0.15323  1.0000
  O2          0.21207      0.70225      0.98565  1.0000
  O2          0.27272      0.53643      0.31689  1.0000
  O2          0.44854      0.78035      0.65207  1.0000
  O2          0.28135      0.76778      0.79766  1.0000
  O2          0.44782      0.70933      0.45985  1.0000
  O2          0.21823      0.54246      0.13089  1.0000
  O3          0.68676      0.26390      0.30065  1.0000
  O2          0.51528      0.31177      0.96461  1.0000
  O2          0.74742      0.47459      0.63103  1.0000
  O3          0.76057      0.55446      0.49689  1.0000
  O2          0.44678      0.25174      0.83630  1.0000
  O2          0.73314      0.22254      0.17088  1.0000
  O2          0.19906      0.47120      0.00289  1.0000
  O2          0.50086      0.74585      0.33497  1.0000
  O2          0.22754      0.79014      0.67086  1.0000
  O2          0.51408      0.78411      0.78041  1.0000
  O2          0.24647      0.47604      0.44270  1.0000
  O2          0.20312      0.75917      0.11284  1.0000
  O2          0.45423      0.22749      0.28082  1.0000
  O2          0.73134      0.54220      0.94777  1.0000
  O2          0.76886      0.26350      0.61448  1.0000
  O2          0.21619      0.33332      0.36907  1.0000
  O2          0.65786      0.91195      0.70787  1.0000
  O2          0.07327      0.77342      0.03941  1.0000
  O2          0.74891      0.67792      0.87250  1.0000
  O2          0.31722      0.10697      0.20686  1.0000
  O2          0.88534      0.24077      0.53964  1.0000
  O2          0.30415      0.23653      0.90943  1.0000
  O2          0.87396      0.67381      0.57393  1.0000
  O3          0.77154      0.10434      0.24103  1.0000
  O2          0.65413      0.78265      0.40732  1.0000
  O2          0.07893      0.33265      0.07691  1.0000
  O2          0.21303      0.91211      0.74619  1.0000
  O3          0.57474      0.58418      0.46605  1.0000
  O2          0.42342      0.02404      0.80353  1.0000
  O2          0.95985      0.42233      0.13250  1.0000
  O2          0.39228      0.44685      0.96419  1.0000
  O3          0.53263      0.97219      0.30398  1.0000
  O2          0.00186      0.59137      0.62674  1.0000
  O2          0.53802      0.58654      0.81660  1.0000
  O2          0.99849      0.44452      0.48418  1.0000
  O2          0.40310      0.98404      0.15463  1.0000
  O3          0.40750      0.41453      0.30883  1.0000
  O2          0.95345      0.56462      0.98404  1.0000
  O2          0.57151      0.03756      0.65463  1.0000
  O2          0.56217      0.16476      0.73119  1.0000
  O2          0.82030      0.42639      0.05868  1.0000
  O1          0.58781      0.42792      0.39175  1.0000
  O2          0.40492      0.84827      0.22629  1.0000
  O2          0.13654      0.58532      0.55608  1.0000
  O2          0.39480      0.58341      0.88997  1.0000
  F           0.43108      0.90570      0.72609  1.0000
  F           0.08176      0.55608      0.05796  1.0000
  F           0.45791      0.53841      0.38298  1.0000
  F           0.56045      0.10594      0.23533  1.0000
  F           0.84384      0.44705      0.55011  1.0000
  F           0.52845      0.45472      0.89051  1.0000
