data_cif

_audit_creation_method             'generated by GULP'

_symmetry_space_group_name_H-M     'P 1'
_symmetry_Int_Tables_number        1
_symmetry_cell_setting             triclinic

_cell_length_a                       11.9208
_cell_length_b                       12.0296
_cell_length_c                       29.5118
_cell_angle_alpha                   90.1864
_cell_angle_beta                    90.0185
_cell_angle_gamma                  119.9400

loop_
_atom_site_label
_atom_site_fract_x
_atom_site_fract_y
_atom_site_fract_z
_atom_site_occupancy
  Ge          0.69552      0.38696      0.51548  1.0000
  Si          0.59730      0.32127      0.84193  1.0000
  Si          0.65269      0.29742      0.17181  1.0000
  Si          0.26849      0.61895      0.00478  1.0000
  Si          0.35836      0.68282      0.33548  1.0000
  Si          0.30486      0.71100      0.67268  1.0000
  Si          0.35272      0.69613      0.77290  1.0000
  Si          0.30490      0.62832      0.43775  1.0000
  Si          0.27390      0.67697      0.10529  1.0000
  Si          0.60231      0.30321      0.27319  1.0000
  Si          0.64934      0.38047      0.94204  1.0000
  Si          0.67410      0.32445      0.61375  1.0000
  Ge          0.52563      0.42689      0.44506  1.0000
  Si          0.56017      0.10615      0.78080  1.0000
  Si          0.86321      0.47213      0.10780  1.0000
  Si          0.43858      0.57979      0.93864  1.0000
  Si          0.39368      0.89074      0.27127  1.0000
  Si          0.09605      0.54122      0.60542  1.0000
  Si          0.39006      0.52281      0.83700  1.0000
  Si          0.08902      0.58813      0.50256  1.0000
  Si          0.44514      0.88840      0.17016  1.0000
  Ge          0.56618      0.47699      0.34210  1.0000
  Si          0.86080      0.41858      0.00644  1.0000
  Si          0.51112      0.11528      0.67976  1.0000
  Si          0.28674      0.40295      0.31925  1.0000
  Si          0.58499      0.91140      0.66041  1.0000
  Si          0.06739      0.69700      0.99114  1.0000
  Si          0.67263      0.59544      0.82445  1.0000
  Si          0.37467      0.09672      0.15642  1.0000
  Si          0.87820      0.29998      0.48953  1.0000
  Si          0.36847      0.30106      0.95421  1.0000
  Si          0.87853      0.60976      0.61980  1.0000
  Si          0.67555      0.09741      0.28638  1.0000
  Si          0.58947      0.71392      0.45639  1.0000
  Si          0.07335      0.39999      0.12089  1.0000
  Si          0.27730      0.89679      0.79128  1.0000
  Si          0.23956      0.34493      0.42189  1.0000
  Si          0.63591      0.90609      0.76118  1.0000
  Si          0.06341      0.74948      0.09174  1.0000
  Si          0.71982      0.65857      0.92494  1.0000
  Si          0.31960      0.09357      0.25699  1.0000
  Si          0.89225      0.25923      0.59283  1.0000
  Si          0.31401      0.24655      0.85353  1.0000
  Si          0.88538      0.67084      0.51713  1.0000
  Si          0.72408      0.08881      0.18585  1.0000
  Ge          0.64802      0.75452      0.35316  1.0000
  Si          0.06137      0.33956      0.02032  1.0000
  Si          0.23074      0.91541      0.69096  1.0000
  Si          0.95706      0.12889      0.43841  1.0000
  Si          0.85298      0.84220      0.77457  1.0000
  Si          0.12583      0.02882      0.10580  1.0000
  Si          0.99958      0.87707      0.94056  1.0000
  Si          0.10239      0.15837      0.27075  1.0000
  Si          0.83467      0.98346      0.60858  1.0000
  Si          0.09681      0.96603      0.84002  1.0000
  Si          0.83571      0.89625      0.50668  1.0000
  Si          0.00486      0.15209      0.17042  1.0000
  Si          0.86207      0.03834      0.33727  1.0000
  Si          0.12103      0.12054      0.00525  1.0000
  Si          0.95136      0.85683      0.67332  1.0000
  O2          0.91963      0.01489      0.47392  1.0000
  O2          0.97664      0.92194      0.80628  1.0000
  O2          0.04603      0.07207      0.13776  1.0000
  O2          0.04042      0.99907      0.97263  1.0000
  O2          0.98730      0.08956      0.30603  1.0000
  O2          0.91495      0.94195      0.64130  1.0000
  O2          0.31378      0.57046      0.80355  1.0000
  O2          0.39764      0.76325      0.13759  1.0000
  O2          0.21423      0.66056      0.46986  1.0000
  O3          0.64521      0.42113      0.30511  1.0000
  O2          0.56642      0.24799      0.65215  1.0000
  O2          0.73255      0.34194      0.97508  1.0000
  O1          0.55630      0.34528      0.48488  1.0000
  O2          0.73759      0.42181      0.14000  1.0000
  O2          0.63720      0.23103      0.81294  1.0000
  O2          0.38925      0.65636      0.97065  1.0000
  O2          0.22177      0.59285      0.63755  1.0000
  O2          0.31581      0.76542      0.30372  1.0000
  O2          0.11056      0.22237      0.44180  1.0000
  O2          0.76058      0.90329      0.78152  1.0000
  O2          0.06338      0.87550      0.11154  1.0000
  O2          0.84457      0.78646      0.94488  1.0000
  O2          0.19331      0.09522      0.27687  1.0000
  O2          0.89689      0.13718      0.61384  1.0000
  O2          0.18883      0.11892      0.83344  1.0000
  O2          0.90007      0.80632      0.50123  1.0000
  O2          0.85046      0.08940      0.16497  1.0000
  O3          0.78039      0.88917      0.33026  1.0000
  O2          0.05783      0.21153      0.00055  1.0000
  O2          0.10639      0.91984      0.67079  1.0000
  O2          0.90250      0.85863      0.72340  1.0000
  O2          0.11095      0.06659      0.05519  1.0000
  O2          0.91042      0.07188      0.38898  1.0000
  O2          0.04413      0.13741      0.22078  1.0000
  O2          0.84956      0.94741      0.55777  1.0000
  O2          0.04141      0.93023      0.89020  1.0000
  O2          0.88750      0.20913      0.45155  1.0000
  O2          0.77237      0.69098      0.78609  1.0000
  O2          0.27775      0.09860      0.11789  1.0000
  O2          0.06840      0.79490      0.95301  1.0000
  O2          0.18313      0.31032      0.28123  1.0000
  O2          0.68302      0.91404      0.62155  1.0000
  O2          0.17837      0.89442      0.82958  1.0000
  O2          0.68316      0.81768      0.49504  1.0000
  O2          0.07553      0.30339      0.15877  1.0000
  O2          0.77311      0.10140      0.32568  1.0000
  O2          0.27235      0.20374      0.99243  1.0000
  O2          0.88353      0.70882      0.65790  1.0000
  O2          0.30012      0.64564      0.72150  1.0000
  O2          0.32941      0.67658      0.05465  1.0000
  O2          0.30236      0.67548      0.38662  1.0000
  O2          0.65262      0.35323      0.22165  1.0000
  O3          0.60618      0.31159      0.56675  1.0000
  O2          0.65367      0.32419      0.89225  1.0000
  O3          0.35530      0.33109      0.44019  1.0000
  O2          0.64683      0.03625      0.78170  1.0000
  O2          0.93163      0.62769      0.11053  1.0000
  O2          0.59528      0.66794      0.94146  1.0000
  O2          0.30642      0.95972      0.27483  1.0000
  O2          0.02547      0.38633      0.60788  1.0000
  O2          0.30332      0.36708      0.83394  1.0000
  O2          0.01899      0.67373      0.50141  1.0000
  O2          0.60206      0.95706      0.16685  1.0000
  O1          0.67385      0.63894      0.33144  1.0000
  O2          0.92844      0.33036      0.00233  1.0000
  O2          0.35482      0.04763      0.67398  1.0000
  O3          0.74469      0.29313      0.48202  1.0000
  O2          0.67260      0.46139      0.81767  1.0000
  O2          0.50986      0.22854      0.14844  1.0000
  O2          0.20052      0.69468      0.98280  1.0000
  O2          0.29137      0.53964      0.31435  1.0000
  O2          0.44899      0.78062      0.65057  1.0000
  O2          0.27528      0.76159      0.79573  1.0000
  O2          0.45064      0.71056      0.45732  1.0000
  O2          0.20752      0.53437      0.12746  1.0000
  O2          0.67512      0.22941      0.29323  1.0000
  O2          0.50418      0.30473      0.96293  1.0000
  O2          0.74932      0.47539      0.63025  1.0000
  O3          0.76179      0.55425      0.49595  1.0000
  O2          0.44082      0.24509      0.83510  1.0000
  O2          0.72715      0.21586      0.16682  1.0000
  O2          0.18768      0.46335      0.00012  1.0000
  O3          0.51199      0.75625      0.33331  1.0000
  O2          0.22692      0.78957      0.66947  1.0000
  O2          0.50877      0.77884      0.77859  1.0000
  O2          0.24856      0.47620      0.44094  1.0000
  O2          0.19047      0.74952      0.11032  1.0000
  O2          0.44473      0.21678      0.27751  1.0000
  O2          0.72067      0.53572      0.94616  1.0000
  O2          0.77109      0.26456      0.61399  1.0000
  O2          0.22344      0.33636      0.36757  1.0000
  O2          0.65617      0.90956      0.70685  1.0000
  O2          0.06341      0.76715      0.03746  1.0000
  O2          0.74174      0.67193      0.87068  1.0000
  O2          0.30114      0.09530      0.20270  1.0000
  O2          0.88596      0.24126      0.53865  1.0000
  O2          0.29531      0.22976      0.90771  1.0000
  O2          0.87492      0.67383      0.57243  1.0000
  O2          0.74463      0.08952      0.24002  1.0000
  O3          0.66925      0.78029      0.41139  1.0000
  O2          0.06612      0.32443      0.07448  1.0000
  O2          0.21018      0.90889      0.74515  1.0000
  O3          0.56737      0.57718      0.46866  1.0000
  O2          0.41800      0.01739      0.80264  1.0000
  O2          0.94936      0.41652      0.13030  1.0000
  O2          0.38164      0.43979      0.96173  1.0000
  O2          0.53550      0.97145      0.29477  1.0000
  O2          0.00392      0.59295      0.62449  1.0000
  O2          0.53268      0.58087      0.81444  1.0000
  O2          0.00036      0.44516      0.48287  1.0000
  O2          0.38527      0.96989      0.14698  1.0000
  O3          0.41984      0.40952      0.31016  1.0000
  O2          0.94154      0.55813      0.98242  1.0000
  O2          0.57279      0.03822      0.65410  1.0000
  O2          0.55961      0.16171      0.73099  1.0000
  O2          0.80882      0.41891      0.05718  1.0000
  O1          0.58901      0.42021      0.39362  1.0000
  O2          0.39150      0.83417      0.22080  1.0000
  O2          0.13947      0.58723      0.55371  1.0000
  O2          0.38664      0.57679      0.88731  1.0000
  F           0.42856      0.90277      0.72437  1.0000
  F           0.06984      0.54766      0.05482  1.0000
  F           0.47549      0.54902      0.38205  1.0000
  F           0.52089      0.09009      0.22016  1.0000
  F           0.84485      0.44748      0.54905  1.0000
  F           0.52065      0.44842      0.88809  1.0000
