data_cif

_audit_creation_method             'generated by GULP'

_symmetry_space_group_name_H-M     'P 1'
_symmetry_Int_Tables_number        1
_symmetry_cell_setting             triclinic

_cell_length_a                       11.9418
_cell_length_b                       12.0186
_cell_length_c                       29.5124
_cell_angle_alpha                   90.1557
_cell_angle_beta                    89.9903
_cell_angle_gamma                  119.9655

loop_
_atom_site_label
_atom_site_fract_x
_atom_site_fract_y
_atom_site_fract_z
_atom_site_occupancy
  Ge          0.69552      0.38696      0.51548  1.0000
  Si          0.59864      0.32609      0.84307  1.0000
  Si          0.65153      0.30101      0.17286  1.0000
  Si          0.27069      0.62288      0.00686  1.0000
  Si          0.36193      0.68396      0.33687  1.0000
  Si          0.30533      0.71256      0.67503  1.0000
  Si          0.35444      0.70089      0.77529  1.0000
  Si          0.31093      0.62714      0.43869  1.0000
  Si          0.27390      0.67992      0.10740  1.0000
  Si          0.60203      0.31088      0.27439  1.0000
  Si          0.65164      0.38386      0.94322  1.0000
  Si          0.67690      0.32599      0.61452  1.0000
  Ge          0.52730      0.42086      0.44370  1.0000
  Si          0.56117      0.11115      0.78158  1.0000
  Si          0.86302      0.47416      0.10885  1.0000
  Si          0.44173      0.58435      0.94101  1.0000
  Si          0.39797      0.89679      0.27347  1.0000
  Si          0.09806      0.54109      0.60782  1.0000
  Si          0.39263      0.52819      0.83939  1.0000
  Si          0.09884      0.59197      0.50464  1.0000
  Si          0.44543      0.89155      0.17229  1.0000
  Ge          0.55950      0.48135      0.34279  1.0000
  Si          0.86296      0.42158      0.00747  1.0000
  Si          0.51141      0.11659      0.68046  1.0000
  Si          0.28390      0.40287      0.31871  1.0000
  Si          0.58515      0.91225      0.66213  1.0000
  Si          0.06976      0.70053      0.99257  1.0000
  Si          0.67457      0.60111      0.82611  1.0000
  Si          0.37368      0.09911      0.15839  1.0000
  Si          0.88473      0.30526      0.49090  1.0000
  Si          0.37152      0.30500      0.95599  1.0000
  Si          0.88043      0.61114      0.62282  1.0000
  Si          0.67790      0.10654      0.28747  1.0000
  Si          0.59411      0.71010      0.45476  1.0000
  Si          0.07294      0.40240      0.12254  1.0000
  Si          0.27873      0.90175      0.79263  1.0000
  Si          0.24279      0.34310      0.42133  1.0000
  Si          0.63721      0.91069      0.76296  1.0000
  Si          0.06370      0.75185      0.09314  1.0000
  Si          0.72223      0.66266      0.92669  1.0000
  Si          0.32019      0.09688      0.25916  1.0000
  Si          0.89483      0.25954      0.59404  1.0000
  Si          0.31606      0.25133      0.85536  1.0000
  Ge          0.89116      0.67264      0.51925  1.0000
  Si          0.72397      0.09315      0.18705  1.0000
  Si          0.65171      0.75987      0.35230  1.0000
  Si          0.06340      0.34303      0.02195  1.0000
  Si          0.23112      0.91763      0.69218  1.0000
  Si          0.95954      0.13375      0.43868  1.0000
  Si          0.85481      0.84833      0.77611  1.0000
  Si          0.12544      0.03102      0.10724  1.0000
  Si          0.00201      0.88073      0.94203  1.0000
  Si          0.09879      0.15648      0.27177  1.0000
  Si          0.83281      0.98126      0.60937  1.0000
  Si          0.09836      0.97095      0.84148  1.0000
  Si          0.83871      0.89912      0.50661  1.0000
  Si          0.00343      0.15342      0.17155  1.0000
  Si          0.85997      0.04295      0.33822  1.0000
  Si          0.12378      0.12427      0.00669  1.0000
  Si          0.95170      0.85758      0.67512  1.0000
  O2          0.91772      0.02144      0.47493  1.0000
  O2          0.97859      0.92773      0.80772  1.0000
  O2          0.04385      0.07400      0.13830  1.0000
  O2          0.04342      0.00329      0.97387  1.0000
  O2          0.98105      0.08122      0.30601  1.0000
  O2          0.91325      0.93759      0.64107  1.0000
  O2          0.31578      0.57587      0.80632  1.0000
  O2          0.39689      0.76570      0.13997  1.0000
  O2          0.22519      0.66057      0.47244  1.0000
  O3          0.64243      0.43099      0.30488  1.0000
  O2          0.56696      0.24814      0.65201  1.0000
  O2          0.73538      0.34514      0.97586  1.0000
  O1          0.55605      0.33899      0.48396  1.0000
  O2          0.73670      0.42454      0.14061  1.0000
  O2          0.63823      0.23661      0.81346  1.0000
  O2          0.39237      0.66061      0.97317  1.0000
  O2          0.22209      0.59255      0.64065  1.0000
  O2          0.32408      0.77135      0.30629  1.0000
  O2          0.11321      0.22171      0.44171  1.0000
  O2          0.76222      0.90906      0.78337  1.0000
  O2          0.06302      0.87759      0.11298  1.0000
  O2          0.84728      0.79005      0.94670  1.0000
  O2          0.19324      0.09771      0.27880  1.0000
  O2          0.89673      0.13561      0.61465  1.0000
  O2          0.19049      0.12412      0.83529  1.0000
  O3          0.91096      0.81920      0.50157  1.0000
  O2          0.84949      0.09248      0.16616  1.0000
  O2          0.76832      0.89126      0.33236  1.0000
  O2          0.06081      0.21543      0.00214  1.0000
  O2          0.10697      0.92230      0.67214  1.0000
  O2          0.90427      0.86654      0.72484  1.0000
  O2          0.11313      0.06921      0.05646  1.0000
  O2          0.91110      0.07588      0.38933  1.0000
  O2          0.04247      0.13501      0.22152  1.0000
  O2          0.84186      0.94462      0.55812  1.0000
  O2          0.04264      0.93348      0.89156  1.0000
  O2          0.89448      0.21819      0.45154  1.0000
  O2          0.77405      0.69687      0.78768  1.0000
  O2          0.27653      0.10094      0.12012  1.0000
  O2          0.07107      0.79873      0.95441  1.0000
  O2          0.17495      0.30880      0.28220  1.0000
  O2          0.68225      0.91316      0.62335  1.0000
  O2          0.17993      0.89966      0.83083  1.0000
  O2          0.68799      0.81352      0.49274  1.0000
  O2          0.07459      0.30537      0.16048  1.0000
  O2          0.77894      0.11311      0.32611  1.0000
  O2          0.27517      0.20741      0.99415  1.0000
  O2          0.88655      0.70739      0.66283  1.0000
  O2          0.30138      0.64886      0.72412  1.0000
  O2          0.33027      0.68005      0.05687  1.0000
  O2          0.30604      0.67600      0.38794  1.0000
  O2          0.65151      0.35763      0.22249  1.0000
  O3          0.61039      0.31565      0.56728  1.0000
  O2          0.65511      0.32792      0.89327  1.0000
  O3          0.35625      0.32561      0.43953  1.0000
  O2          0.64799      0.04155      0.78277  1.0000
  O2          0.93175      0.62987      0.11164  1.0000
  O2          0.59829      0.67222      0.94367  1.0000
  O2          0.30867      0.96351      0.27734  1.0000
  O2          0.02649      0.38579      0.61064  1.0000
  O2          0.30562      0.37239      0.83614  1.0000
  O3          0.03660      0.68195      0.50301  1.0000
  O2          0.60203      0.96049      0.16861  1.0000
  O3          0.66981      0.64817      0.33240  1.0000
  O2          0.93090      0.33362      0.00357  1.0000
  O2          0.35539      0.04921      0.67468  1.0000
  O3          0.74979      0.29546      0.48410  1.0000
  O2          0.67400      0.46677      0.81907  1.0000
  O2          0.50837      0.23114      0.14999  1.0000
  O2          0.20306      0.69858      0.98459  1.0000
  O2          0.29018      0.54137      0.31513  1.0000
  O2          0.44898      0.78144      0.65268  1.0000
  O2          0.27710      0.76678      0.79773  1.0000
  O2          0.45700      0.70821      0.45746  1.0000
  O2          0.20671      0.53691      0.12945  1.0000
  O2          0.67641      0.23817      0.29445  1.0000
  O2          0.50690      0.30815      0.96439  1.0000
  O2          0.75198      0.47506      0.63261  1.0000
  O1          0.75871      0.55075      0.49588  1.0000
  O2          0.44234      0.24992      0.83652  1.0000
  O2          0.72567      0.21923      0.16764  1.0000
  O2          0.19002      0.46717      0.00204  1.0000
  O2          0.51671      0.74952      0.33618  1.0000
  O2          0.22741      0.79109      0.67126  1.0000
  O2          0.51029      0.78403      0.78088  1.0000
  O2          0.25367      0.47472      0.44108  1.0000
  O2          0.19043      0.75236      0.11210  1.0000
  O2          0.44501      0.22064      0.27934  1.0000
  O2          0.72307      0.53924      0.94750  1.0000
  O2          0.77230      0.26476      0.61366  1.0000
  O2          0.22220      0.33395      0.36715  1.0000
  O2          0.65658      0.91175      0.70863  1.0000
  O2          0.06495      0.77030      0.03886  1.0000
  O2          0.74365      0.67695      0.87240  1.0000
  O2          0.30115      0.09758      0.20489  1.0000
  O2          0.89346      0.24618      0.53975  1.0000
  O2          0.29799      0.23395      0.90954  1.0000
  O3          0.87754      0.68295      0.57810  1.0000
  O2          0.74633      0.09743      0.24120  1.0000
  O2          0.66640      0.77061      0.40729  1.0000
  O2          0.06678      0.32725      0.07613  1.0000
  O2          0.21141      0.91258      0.74640  1.0000
  O3          0.57307      0.57395      0.46677  1.0000
  O2          0.41925      0.02292      0.80359  1.0000
  O2          0.94858      0.41832      0.13162  1.0000
  O2          0.38506      0.44390      0.96387  1.0000
  O2          0.53951      0.97918      0.29687  1.0000
  O2          0.00604      0.59402      0.62554  1.0000
  O2          0.53474      0.58663      0.81648  1.0000
  O2          0.00545      0.45035      0.48435  1.0000
  O2          0.38478      0.97239      0.14916  1.0000
  O3          0.41632      0.41092      0.30780  1.0000
  O2          0.94430      0.56151      0.98361  1.0000
  O2          0.57349      0.03930      0.65528  1.0000
  O2          0.56021      0.16531      0.73151  1.0000
  O2          0.81002      0.42130      0.05809  1.0000
  O1          0.59107      0.41852      0.39218  1.0000
  O2          0.39371      0.83824      0.22322  1.0000
  O2          0.14428      0.58645      0.55629  1.0000
  O2          0.38978      0.58197      0.88977  1.0000
  F           0.42958      0.90623      0.72581  1.0000
  F           0.07091      0.55063      0.05640  1.0000
  F           0.46571      0.53237      0.38204  1.0000
  F           0.52136      0.09322      0.22217  1.0000
  F           0.84951      0.45756      0.54997  1.0000
  F           0.52279      0.45288      0.88985  1.0000
