data_cif

_audit_creation_method             'generated by GULP'

_symmetry_space_group_name_H-M     'P 1'
_symmetry_Int_Tables_number        1
_symmetry_cell_setting             triclinic

_cell_length_a                       11.9590
_cell_length_b                       11.9180
_cell_length_c                       29.5814
_cell_angle_alpha                   89.2679
_cell_angle_beta                    90.4322
_cell_angle_gamma                  119.4721

loop_
_atom_site_label
_atom_site_fract_x
_atom_site_fract_y
_atom_site_fract_z
_atom_site_occupancy
  Ge          0.69552      0.38696      0.51548  1.0000
  Si          0.62020      0.33306      0.84853  1.0000
  Si          0.67380      0.29412      0.17441  1.0000
  Si          0.29745      0.62540      0.01351  1.0000
  Si          0.37948      0.67878      0.34608  1.0000
  Si          0.33259      0.72607      0.68137  1.0000
  Si          0.38209      0.71523      0.78141  1.0000
  Si          0.32454      0.62413      0.44795  1.0000
  Si          0.29377      0.67504      0.11388  1.0000
  Si          0.62614      0.30061      0.27466  1.0000
  Si          0.67428      0.38544      0.94827  1.0000
  Si          0.69947      0.33460      0.62015  1.0000
  Ge          0.52401      0.42704      0.44325  1.0000
  Si          0.58098      0.12250      0.78533  1.0000
  Si          0.88586      0.47134      0.11195  1.0000
  Si          0.46920      0.58919      0.94839  1.0000
  Si          0.42104      0.89192      0.27989  1.0000
  Si          0.12724      0.54711      0.61624  1.0000
  Si          0.41793      0.54017      0.84702  1.0000
  Si          0.11475      0.59058      0.51262  1.0000
  Si          0.46616      0.88312      0.17875  1.0000
  Ge          0.58634      0.46423      0.34357  1.0000
  Si          0.88743      0.42240      0.01101  1.0000
  Si          0.52774      0.13115      0.68466  1.0000
  Si          0.29736      0.39583      0.32991  1.0000
  Si          0.60899      0.92885      0.66690  1.0000
  Si          0.09547      0.70304      0.99774  1.0000
  Si          0.69899      0.61228      0.83335  1.0000
  Si          0.39542      0.09498      0.16348  1.0000
  Si          0.90059      0.30524      0.49684  1.0000
  Si          0.39725      0.30749      0.96280  1.0000
  Si          0.91097      0.61602      0.63102  1.0000
  Si          0.70067      0.09703      0.29182  1.0000
  Si          0.60876      0.70486      0.46571  1.0000
  Si          0.09299      0.39724      0.12779  1.0000
  Si          0.30234      0.91387      0.79804  1.0000
  Si          0.24554      0.33469      0.43229  1.0000
  Si          0.66166      0.92423      0.76763  1.0000
  Si          0.08567      0.74915      0.09807  1.0000
  Si          0.74772      0.66741      0.93383  1.0000
  Si          0.34397      0.09556      0.26410  1.0000
  Ge          0.91429      0.28270      0.59682  1.0000
  Si          0.33898      0.25970      0.86240  1.0000
  Si          0.91589      0.67562      0.52836  1.0000
  Si          0.74516      0.08325      0.19155  1.0000
  Si          0.66618      0.74873      0.36292  1.0000
  Si          0.08884      0.34437      0.02750  1.0000
  Si          0.25150      0.92847      0.69805  1.0000
  Si          0.96340      0.12723      0.44570  1.0000
  Si          0.87895      0.85978      0.78192  1.0000
  Si          0.14730      0.02848      0.11327  1.0000
  Si          0.02649      0.88480      0.94747  1.0000
  Si          0.11905      0.15036      0.27989  1.0000
  Si          0.85653      0.99749      0.61534  1.0000
  Si          0.12111      0.98061      0.84716  1.0000
  Si          0.84988      0.89426      0.51568  1.0000
  Si          0.02508      0.14757      0.17873  1.0000
  Si          0.87922      0.03046      0.34517  1.0000
  Si          0.14993      0.12575      0.01256  1.0000
  Si          0.97192      0.86446      0.68084  1.0000
  O2          0.92261      0.00998      0.48036  1.0000
  O2          0.00242      0.94033      0.81332  1.0000
  O2          0.06969      0.06939      0.14696  1.0000
  O2          0.07004      0.00551      0.98015  1.0000
  O2          0.00165      0.06637      0.31362  1.0000
  O2          0.92771      0.94124      0.64771  1.0000
  O2          0.34304      0.59033      0.81383  1.0000
  O2          0.41514      0.75686      0.14732  1.0000
  O2          0.23877      0.66279      0.47931  1.0000
  O3          0.66804      0.42667      0.30352  1.0000
  O2          0.57736      0.26117      0.65434  1.0000
  O2          0.76138      0.34562      0.97967  1.0000
  O1          0.56768      0.34401      0.48240  1.0000
  O2          0.75686      0.41816      0.14225  1.0000
  O2          0.65885      0.24685      0.81736  1.0000
  O2          0.42008      0.66481      0.98105  1.0000
  O2          0.25600      0.60827      0.64661  1.0000
  O2          0.34591      0.76789      0.31361  1.0000
  O2          0.11559      0.21547      0.45132  1.0000
  O2          0.78783      0.92310      0.78771  1.0000
  O2          0.08390      0.87419      0.11828  1.0000
  O2          0.87321      0.79356      0.95364  1.0000
  O2          0.21845      0.09571      0.28465  1.0000
  O3          0.92357      0.14624      0.61950  1.0000
  O2          0.21268      0.13501      0.84245  1.0000
  O2          0.91769      0.80571      0.51077  1.0000
  O2          0.87132      0.08235      0.17214  1.0000
  O2          0.78513      0.87758      0.34147  1.0000
  O2          0.08816      0.21870      0.00696  1.0000
  O2          0.12630      0.93029      0.67758  1.0000
  O2          0.92659      0.86976      0.73109  1.0000
  O2          0.13437      0.07149      0.06316  1.0000
  O2          0.92739      0.07044      0.39574  1.0000
  O2          0.06294      0.13441      0.22978  1.0000
  O2          0.86127      0.94581      0.56551  1.0000
  O2          0.06360      0.93929      0.89705  1.0000
  O2          0.89959      0.21605      0.45483  1.0000
  O2          0.79794      0.70871      0.79534  1.0000
  O2          0.29813      0.09580      0.12525  1.0000
  O2          0.09717      0.80233      0.95930  1.0000
  O2          0.19346      0.30165      0.29260  1.0000
  O2          0.70434      0.93200      0.62803  1.0000
  O2          0.20388      0.91056      0.83648  1.0000
  O2          0.69926      0.81143      0.50255  1.0000
  O2          0.09307      0.29914      0.16651  1.0000
  O2          0.80132      0.10293      0.33000  1.0000
  O2          0.30109      0.20730      0.00090  1.0000
  O2          0.91044      0.71408      0.66803  1.0000
  O2          0.32717      0.66147      0.73098  1.0000
  O2          0.35285      0.67829      0.06405  1.0000
  O2          0.32838      0.67820      0.39682  1.0000
  O2          0.67795      0.35254      0.22392  1.0000
  O3          0.64415      0.33706      0.57063  1.0000
  O2          0.67589      0.32974      0.89858  1.0000
  O3          0.35745      0.31569      0.45197  1.0000
  O2          0.66874      0.05322      0.78789  1.0000
  O2          0.95360      0.62713      0.11633  1.0000
  O2          0.62472      0.67676      0.95180  1.0000
  O2          0.33523      0.96302      0.28341  1.0000
  O3          0.06295      0.39539      0.62136  1.0000
  O2          0.33007      0.38420      0.84450  1.0000
  O2          0.04770      0.68043      0.51148  1.0000
  O2          0.62181      0.95016      0.17522  1.0000
  O3          0.68223      0.63327      0.34452  1.0000
  O2          0.95718      0.33517      0.00871  1.0000
  O2          0.37223      0.06317      0.68113  1.0000
  O3          0.76813      0.30460      0.49232  1.0000
  O2          0.69674      0.47670      0.82621  1.0000
  O2          0.52923      0.22599      0.15374  1.0000
  O2          0.22947      0.70246      0.99148  1.0000
  O2          0.30241      0.53442      0.32618  1.0000
  O2          0.47566      0.79513      0.65996  1.0000
  O2          0.30509      0.78026      0.80480  1.0000
  O2          0.46808      0.69575      0.46864  1.0000
  O2          0.22554      0.53089      0.13607  1.0000
  O2          0.69936      0.23057      0.29837  1.0000
  O2          0.53215      0.30899      0.97103  1.0000
  O2          0.78070      0.48175      0.63918  1.0000
  O3          0.79778      0.55231      0.50821  1.0000
  O2          0.46480      0.26029      0.84298  1.0000
  O2          0.74389      0.20764      0.17015  1.0000
  O2          0.21524      0.46989      0.00876  1.0000
  O2          0.53203      0.73450      0.34446  1.0000
  O2          0.25398      0.80490      0.67734  1.0000
  O2          0.53765      0.79509      0.78596  1.0000
  O2          0.25769      0.46941      0.44986  1.0000
  O2          0.21217      0.75030      0.11815  1.0000
  O2          0.46975      0.22263      0.28243  1.0000
  O2          0.74881      0.54138      0.95389  1.0000
  O3          0.77333      0.25365      0.62529  1.0000
  O2          0.23541      0.32590      0.37748  1.0000
  O2          0.68165      0.93056      0.71360  1.0000
  O2          0.08814      0.77061      0.04399  1.0000
  O2          0.76753      0.68501      0.87976  1.0000
  O2          0.32484      0.09585      0.20996  1.0000
  O3          0.91164      0.23104      0.54055  1.0000
  O2          0.32312      0.23878      0.91659  1.0000
  O2          0.90998      0.67862      0.58260  1.0000
  O2          0.76754      0.08900      0.24556  1.0000
  O2          0.67736      0.76576      0.41708  1.0000
  O2          0.09009      0.32420      0.08168  1.0000
  O2          0.23099      0.92133      0.75220  1.0000
  O3          0.60091      0.57192      0.47685  1.0000
  O2          0.44020      0.03827      0.80822  1.0000
  O2          0.96721      0.41112      0.13620  1.0000
  O2          0.41056      0.44696      0.97148  1.0000
  O2          0.56312      0.97085      0.30229  1.0000
  O2          0.03648      0.60080      0.63686  1.0000
  O2          0.55935      0.59776      0.82470  1.0000
  O2          0.02407      0.45068      0.49085  1.0000
  O2          0.40818      0.96803      0.15606  1.0000
  O3          0.43423      0.41273      0.31952  1.0000
  O2          0.97234      0.56404      0.98819  1.0000
  O2          0.58538      0.04984      0.66015  1.0000
  O2          0.58016      0.17950      0.73539  1.0000
  O2          0.83431      0.42193      0.06135  1.0000
  O1          0.59304      0.39993      0.39421  1.0000
  O2          0.41613      0.83330      0.23009  1.0000
  O2          0.16730      0.58965      0.56316  1.0000
  O2          0.41700      0.59196      0.89768  1.0000
  F           0.45098      0.91865      0.73403  1.0000
  F           0.09352      0.55009      0.06384  1.0000
  F           0.47540      0.52229      0.40324  1.0000
  F           0.54622      0.09428      0.22907  1.0000
  F           0.90523      0.42763      0.56905  1.0000
  F           0.54800      0.45961      0.89905  1.0000
