data_cif

_audit_creation_method             'generated by GULP'

_symmetry_space_group_name_H-M     'P 1'
_symmetry_Int_Tables_number        1
_symmetry_cell_setting             triclinic

_cell_length_a                       11.9248
_cell_length_b                       12.0061
_cell_length_c                       29.5409
_cell_angle_alpha                   90.2721
_cell_angle_beta                    90.0273
_cell_angle_gamma                  119.7978

loop_
_atom_site_label
_atom_site_fract_x
_atom_site_fract_y
_atom_site_fract_z
_atom_site_occupancy
  Ge          0.69552      0.38696      0.51548  1.0000
  Si          0.59430      0.32348      0.84240  1.0000
  Si          0.65004      0.30361      0.17221  1.0000
  Si          0.26615      0.62164      0.00525  1.0000
  Si          0.35632      0.68377      0.33454  1.0000
  Si          0.30065      0.70988      0.67408  1.0000
  Si          0.35004      0.69816      0.77413  1.0000
  Ge          0.30184      0.62521      0.43759  1.0000
  Si          0.27242      0.68075      0.10560  1.0000
  Si          0.59872      0.31046      0.27368  1.0000
  Si          0.64720      0.38253      0.94245  1.0000
  Si          0.66901      0.32201      0.61357  1.0000
  Ge          0.52583      0.42438      0.44381  1.0000
  Si          0.55605      0.10841      0.78070  1.0000
  Si          0.86130      0.47616      0.10838  1.0000
  Si          0.43691      0.58257      0.93949  1.0000
  Si          0.39664      0.89679      0.27038  1.0000
  Si          0.09082      0.53847      0.60784  1.0000
  Si          0.38804      0.52529      0.83804  1.0000
  Si          0.08878      0.59049      0.50524  1.0000
  Si          0.44561      0.89404      0.16946  1.0000
  Ge          0.55546      0.48060      0.34268  1.0000
  Si          0.85854      0.42157      0.00708  1.0000
  Si          0.50530      0.11388      0.67969  1.0000
  Si          0.27924      0.40103      0.31896  1.0000
  Si          0.57981      0.90954      0.66098  1.0000
  Si          0.06499      0.69981      0.99168  1.0000
  Si          0.67012      0.59819      0.82511  1.0000
  Si          0.37302      0.10162      0.15659  1.0000
  Si          0.88157      0.30240      0.49018  1.0000
  Si          0.36671      0.30340      0.95484  1.0000
  Si          0.87290      0.60691      0.62171  1.0000
  Si          0.67581      0.10594      0.28592  1.0000
  Si          0.58941      0.71293      0.45438  1.0000
  Si          0.07189      0.40415      0.12162  1.0000
  Si          0.27388      0.89907      0.79168  1.0000
  Si          0.23874      0.33901      0.42167  1.0000
  Si          0.63224      0.90771      0.76170  1.0000
  Si          0.06183      0.75316      0.09216  1.0000
  Si          0.71764      0.66120      0.92557  1.0000
  Si          0.31756      0.09662      0.25718  1.0000
  Si          0.88825      0.25727      0.59351  1.0000
  Si          0.31142      0.24867      0.85426  1.0000
  Si          0.88276      0.67056      0.51954  1.0000
  Si          0.72306      0.09553      0.18548  1.0000
  Si          0.64620      0.75897      0.35199  1.0000
  Si          0.05946      0.34280      0.02112  1.0000
  Si          0.22556      0.91453      0.69138  1.0000
  Si          0.95752      0.12782      0.43821  1.0000
  Si          0.84986      0.84479      0.77514  1.0000
  Si          0.12407      0.03272      0.10608  1.0000
  Si          0.99696      0.87966      0.94094  1.0000
  Si          0.09485      0.15467      0.27111  1.0000
  Si          0.82824      0.98037      0.60869  1.0000
  Si          0.09354      0.96855      0.84051  1.0000
  Si          0.83480      0.89591      0.50656  1.0000
  Si          0.00260      0.15582      0.17065  1.0000
  Si          0.85627      0.04051      0.33743  1.0000
  Si          0.11927      0.12347      0.00559  1.0000
  Si          0.94589      0.85513      0.67398  1.0000
  O2          0.91801      0.01364      0.47369  1.0000
  O2          0.97382      0.92495      0.80663  1.0000
  O2          0.04381      0.07641      0.13762  1.0000
  O2          0.03845      0.00245      0.97276  1.0000
  O2          0.97762      0.07743      0.30538  1.0000
  O2          0.90865      0.93726      0.64067  1.0000
  O2          0.31128      0.57301      0.80491  1.0000
  O2          0.39742      0.76816      0.13713  1.0000
  O3          0.21171      0.66507      0.47368  1.0000
  O3          0.63833      0.42918      0.30487  1.0000
  O2          0.55983      0.24518      0.65131  1.0000
  O2          0.73074      0.34457      0.97557  1.0000
  O1          0.55806      0.34409      0.48365  1.0000
  O2          0.73582      0.42772      0.14045  1.0000
  O2          0.63354      0.23346      0.81276  1.0000
  O2          0.38709      0.65913      0.97136  1.0000
  O2          0.21624      0.58945      0.63998  1.0000
  O2          0.32166      0.76949      0.30181  1.0000
  O2          0.11142      0.21182      0.44036  1.0000
  O2          0.75731      0.90591      0.78213  1.0000
  O2          0.06221      0.87953      0.11210  1.0000
  O2          0.84227      0.78910      0.94547  1.0000
  O2          0.18981      0.09582      0.27699  1.0000
  O2          0.89121      0.13412      0.61445  1.0000
  O2          0.18579      0.12150      0.83423  1.0000
  O2          0.90116      0.80755      0.50354  1.0000
  O2          0.84901      0.09574      0.16452  1.0000
  O2          0.76316      0.88912      0.33165  1.0000
  O2          0.05609      0.21471      0.00124  1.0000
  O2          0.10068      0.91793      0.67118  1.0000
  O2          0.89861      0.86141      0.72389  1.0000
  O2          0.10917      0.06892      0.05533  1.0000
  O2          0.90573      0.07257      0.38876  1.0000
  O2          0.03891      0.13650      0.22089  1.0000
  O2          0.84053      0.94620      0.55736  1.0000
  O2          0.03771      0.93194      0.89051  1.0000
  O2          0.89462      0.21378      0.45211  1.0000
  O2          0.76967      0.69360      0.78681  1.0000
  O2          0.27574      0.10344      0.11828  1.0000
  O2          0.06584      0.79740      0.95344  1.0000
  O2          0.17026      0.30612      0.28265  1.0000
  O2          0.67717      0.91109      0.62209  1.0000
  O2          0.17530      0.89704      0.82997  1.0000
  O2          0.68519      0.81588      0.49218  1.0000
  O2          0.07443      0.30778      0.15963  1.0000
  O2          0.77650      0.11192      0.32467  1.0000
  O2          0.27046      0.20623      0.99290  1.0000
  O2          0.87773      0.70560      0.66013  1.0000
  O2          0.29714      0.64614      0.72298  1.0000
  O2          0.32710      0.67939      0.05502  1.0000
  O3          0.29154      0.67276      0.38338  1.0000
  O2          0.64928      0.35883      0.22205  1.0000
  O3          0.60378      0.31106      0.56619  1.0000
  O2          0.65102      0.32583      0.89262  1.0000
  O3          0.35564      0.32331      0.43759  1.0000
  O2          0.64295      0.03858      0.78161  1.0000
  O2          0.93025      0.63188      0.11093  1.0000
  O2          0.59333      0.67065      0.94231  1.0000
  O2          0.30699      0.96333      0.27483  1.0000
  O2          0.02005      0.38338      0.61001  1.0000
  O2          0.30105      0.36961      0.83482  1.0000
  O2          0.01595      0.67366      0.50458  1.0000
  O2          0.60227      0.96327      0.16627  1.0000
  O3          0.66131      0.64640      0.33083  1.0000
  O2          0.92646      0.33334      0.00316  1.0000
  O2          0.34916      0.04637      0.67409  1.0000
  O3          0.74809      0.29531      0.48206  1.0000
  O2          0.66980      0.46372      0.81831  1.0000
  O2          0.50716      0.23444      0.14901  1.0000
  O2          0.19785      0.69713      0.98323  1.0000
  O2          0.29026      0.54085      0.31285  1.0000
  O2          0.44394      0.77849      0.65150  1.0000
  O2          0.27264      0.76420      0.79664  1.0000
  O3          0.45867      0.72035      0.45613  1.0000
  O2          0.20593      0.53852      0.12809  1.0000
  O2          0.67280      0.23680      0.29346  1.0000
  O2          0.50236      0.30684      0.96336  1.0000
  O2          0.74367      0.47216      0.63111  1.0000
  O3          0.75928      0.55524      0.49766  1.0000
  O2          0.43798      0.24705      0.83572  1.0000
  O2          0.72462      0.22206      0.16665  1.0000
  O2          0.18541      0.46597      0.00068  1.0000
  O2          0.51137      0.75206      0.33783  1.0000
  O2          0.22234      0.78829      0.67031  1.0000
  O2          0.50587      0.78118      0.77966  1.0000
  O3          0.24363      0.46425      0.44441  1.0000
  O2          0.18900      0.75348      0.11073  1.0000
  O2          0.44172      0.22018      0.27768  1.0000
  O2          0.71848      0.53792      0.94650  1.0000
  O2          0.76546      0.26134      0.61368  1.0000
  O2          0.21550      0.33874      0.36774  1.0000
  O2          0.65146      0.90880      0.70740  1.0000
  O2          0.06159      0.77070      0.03792  1.0000
  O2          0.73903      0.67463      0.87134  1.0000
  O2          0.29904      0.09819      0.20294  1.0000
  O2          0.88654      0.24215      0.53930  1.0000
  O2          0.29337      0.23209      0.90839  1.0000
  O2          0.87003      0.67272      0.57471  1.0000
  O2          0.74492      0.09841      0.23961  1.0000
  O2          0.66427      0.76757      0.40683  1.0000
  O2          0.06475      0.32819      0.07525  1.0000
  O2          0.20595      0.90963      0.74555  1.0000
  O3          0.55950      0.57334      0.46720  1.0000
  O2          0.41426      0.02024      0.80260  1.0000
  O2          0.94772      0.42065      0.13088  1.0000
  O2          0.38033      0.44253      0.96249  1.0000
  O2          0.53759      0.97796      0.29440  1.0000
  O2          0.99798      0.58975      0.62674  1.0000
  O2          0.53015      0.58346      0.81523  1.0000
  O2          0.00323      0.44771      0.48415  1.0000
  O2          0.38545      0.97576      0.14654  1.0000
  O3          0.41027      0.40403      0.30927  1.0000
  O2          0.93908      0.56106      0.98310  1.0000
  O2          0.56710      0.03619      0.65438  1.0000
  O2          0.55444      0.16247      0.73073  1.0000
  O2          0.80691      0.42247      0.05779  1.0000
  O1          0.59186      0.42479      0.39245  1.0000
  O2          0.39322      0.83971      0.22002  1.0000
  O2          0.13589      0.58549      0.55656  1.0000
  O2          0.38495      0.57965      0.88826  1.0000
  F           0.42424      0.90300      0.72479  1.0000
  F           0.06803      0.55112      0.05537  1.0000
  F           0.45951      0.53316      0.38204  1.0000
  F           0.51976      0.09417      0.22021  1.0000
  F           0.84308      0.44704      0.54989  1.0000
  F           0.51834      0.45069      0.88865  1.0000
