data_cif

_audit_creation_method             'generated by GULP'

_symmetry_space_group_name_H-M     'P 1'
_symmetry_Int_Tables_number        1
_symmetry_cell_setting             triclinic

_cell_length_a                       12.0221
_cell_length_b                       11.9786
_cell_length_c                       29.5270
_cell_angle_alpha                   90.4646
_cell_angle_beta                    89.7248
_cell_angle_gamma                  120.1879

loop_
_atom_site_label
_atom_site_fract_x
_atom_site_fract_y
_atom_site_fract_z
_atom_site_occupancy
  Si          0.34583      0.71244      0.83585  1.0000
  Si          0.26856      0.66063      0.17003  1.0000
  Si          0.32219      0.63799      0.50110  1.0000
  Si          0.94166      0.95877      0.33435  1.0000
  Si          0.02716      0.02205      0.66634  1.0000
  Si          0.97650      0.04163      0.00314  1.0000
  Si          0.02892      0.03973      0.10358  1.0000
  Si          0.97823      0.98421      0.76901  1.0000
  Si          0.94269      0.01587      0.43482  1.0000
  Si          0.26671      0.63688      0.60159  1.0000
  Si          0.32211      0.71772      0.27057  1.0000
  Si          0.35414      0.65723      0.93748  1.0000
  Si          0.18015      0.76079      0.77122  1.0000
  Si          0.23334      0.44970      0.10541  1.0000
  Si          0.53312      0.80931      0.43654  1.0000
  Si          0.11613      0.92212      0.26986  1.0000
  Si          0.06586      0.23068      0.60050  1.0000
  Si          0.77102      0.87012      0.93579  1.0000
  Si          0.06528      0.86739      0.16827  1.0000
  Si          0.77600      0.93527      0.83385  1.0000
  Si          0.11617      0.22835      0.49914  1.0000
  Si          0.22885      0.80851      0.66770  1.0000
  Si          0.53189      0.75457      0.33501  1.0000
  Si          0.18352      0.45025      0.00388  1.0000
  Si          0.94499      0.73829      0.64982  1.0000
  Si          0.25509      0.24176      0.98931  1.0000
  Si          0.74089      0.03499      0.32043  1.0000
  Si          0.34483      0.93803      0.15514  1.0000
  Si          0.04450      0.43690      0.48575  1.0000
  Ge          0.55944      0.66038      0.82769  1.0000
  Si          0.04455      0.64173      0.28437  1.0000
  Si          0.55721      0.94087      0.95184  1.0000
  Si          0.34657      0.43775      0.61540  1.0000
  Si          0.25661      0.04928      0.78404  1.0000
  Si          0.74138      0.73799      0.45005  1.0000
  Si          0.95242      0.24104      0.11912  1.0000
  Ge          0.92127      0.71501      0.74980  1.0000
  Si          0.31084      0.24847      0.08991  1.0000
  Si          0.73480      0.08793      0.42088  1.0000
  Si          0.39432      0.99876      0.25550  1.0000
  Si          0.98571      0.42925      0.58630  1.0000
  Si          0.56819      0.58482      0.92287  1.0000
  Si          0.98830      0.58899      0.18388  1.0000
  Si          0.56230      0.99956      0.85075  1.0000
  Si          0.39485      0.42960      0.51453  1.0000
  Si          0.31270      0.09297      0.68195  1.0000
  Si          0.73266      0.67775      0.34952  1.0000
  Si          0.90472      0.24994      0.01867  1.0000
  Ge          0.63203      0.48390      0.76895  1.0000
  Si          0.52735      0.18523      0.10516  1.0000
  Si          0.79720      0.36857      0.43516  1.0000
  Si          0.67491      0.21557      0.27003  1.0000
  Si          0.76843      0.49147      0.59946  1.0000
  Si          0.50493      0.31000      0.94098  1.0000
  Si          0.77099      0.30792      0.16951  1.0000
  Ge          0.50917      0.22853      0.83551  1.0000
  Si          0.67336      0.48968      0.49947  1.0000
  Si          0.52829      0.37362      0.66650  1.0000
  Si          0.79648      0.46098      0.33466  1.0000
  Si          0.62537      0.18689      0.00490  1.0000
  O1          0.60082      0.35047      0.80209  1.0000
  O2          0.64837      0.26550      0.13776  1.0000
  O2          0.71526      0.41070      0.46638  1.0000
  O2          0.71724      0.33872      0.30208  1.0000
  O2          0.64802      0.41605      0.63251  1.0000
  O2          0.58146      0.26597      0.97400  1.0000
  O2          0.98977      0.91596      0.13568  1.0000
  O2          0.06674      0.10201      0.46684  1.0000
  O2          0.90297      0.03171      0.80367  1.0000
  O2          0.30449      0.75912      0.63512  1.0000
  O2          0.23434      0.57572      0.97152  1.0000
  O2          0.40553      0.67870      0.30305  1.0000
  O2          0.22512      0.68613      0.80511  1.0000
  O2          0.40812      0.76166      0.46897  1.0000
  O2          0.30847      0.57562      0.13795  1.0000
  O2          0.06496      0.99784      0.30179  1.0000
  O2          0.89292      0.91991      0.96954  1.0000
  O2          0.99160      0.10565      0.63304  1.0000
  O1          0.79077      0.57901      0.77362  1.0000
  O2          0.43691      0.24894      0.10972  1.0000
  O2          0.73490      0.21454      0.44092  1.0000
  O2          0.52072      0.12594      0.27524  1.0000
  O2          0.85846      0.42752      0.60576  1.0000
  O2          0.56560      0.46386      0.94884  1.0000
  O2          0.86212      0.46208      0.16388  1.0000
  O3          0.56182      0.11842      0.82868  1.0000
  O2          0.51971      0.42828      0.49396  1.0000
  O2          0.43438      0.21723      0.65997  1.0000
  O2          0.73210      0.55055      0.32974  1.0000
  O2          0.77919      0.25094      0.99908  1.0000
  O2          0.58375      0.19571      0.05543  1.0000
  O2          0.78516      0.40713      0.38464  1.0000
  O3          0.57724      0.40804      0.71602  1.0000
  O2          0.71230      0.47233      0.54930  1.0000
  O3          0.52475      0.27341      0.89156  1.0000
  O2          0.71772      0.26801      0.21979  1.0000
  O1          0.54736      0.55408      0.78393  1.0000
  O2          0.44374      0.03381      0.11693  1.0000
  O2          0.94819      0.43903      0.44774  1.0000
  O2          0.74231      0.13245      0.28222  1.0000
  O2          0.85603      0.64536      0.60837  1.0000
  O2          0.35181      0.23896      0.95143  1.0000
  O2          0.85309      0.23871      0.15714  1.0000
  O3          0.34600      0.14544      0.82256  1.0000
  O2          0.74325      0.64193      0.48822  1.0000
  O2          0.44420      0.44055      0.65346  1.0000
  O2          0.94755      0.54452      0.32259  1.0000
  O2          0.55833      0.03528      0.99148  1.0000
  O2          0.97396      0.98279      0.05305  1.0000
  O2          0.99922      0.01593      0.38451  1.0000
  O2          0.97380      0.02729      0.71665  1.0000
  O2          0.32351      0.69527      0.55157  1.0000
  O2          0.29783      0.65968      0.88786  1.0000
  O2          0.32363      0.66072      0.22036  1.0000
  O3          0.02995      0.67425      0.77485  1.0000
  O2          0.32049      0.38112      0.10831  1.0000
  O2          0.60259      0.96589      0.43937  1.0000
  O2          0.27216      0.00962      0.27339  1.0000
  O2          0.97760      0.29785      0.60461  1.0000
  O2          0.70002      0.71421      0.93924  1.0000
  O2          0.97830      0.71073      0.16525  1.0000
  O2          0.69770      0.01256      0.83632  1.0000
  O2          0.27200      0.29684      0.49630  1.0000
  O2          0.31378      0.96503      0.66479  1.0000
  O2          0.60023      0.66700      0.33143  1.0000
  O2          0.02767      0.38176      0.00025  1.0000
  O3          0.40526      0.63596      0.81248  1.0000
  O2          0.34407      0.80358      0.14761  1.0000
  O2          0.17923      0.57077      0.47881  1.0000
  O2          0.87359      0.03354      0.31234  1.0000
  O2          0.95412      0.87822      0.64429  1.0000
  O2          0.11971      0.10931      0.98107  1.0000
  O2          0.95292      0.10715      0.12584  1.0000
  O2          0.12545      0.05488      0.78690  1.0000
  O2          0.87498      0.87294      0.45726  1.0000
  O2          0.34229      0.56965      0.62340  1.0000
  O2          0.17843      0.64303      0.29237  1.0000
  O2          0.42804      0.80296      0.95814  1.0000
  O2          0.43941      0.86852      0.83331  1.0000
  O2          0.11298      0.58661      0.16463  1.0000
  O2          0.39520      0.55558      0.49545  1.0000
  O2          0.85889      0.80240      0.32958  1.0000
  O2          0.18152      0.08535      0.66580  1.0000
  O2          0.90133      0.12225      0.99883  1.0000
  O2          0.18452      0.12237      0.10897  1.0000
  O3          0.89714      0.83297      0.77708  1.0000
  O2          0.86107      0.08977      0.44012  1.0000
  O2          0.11083      0.55588      0.60616  1.0000
  O2          0.39510      0.87403      0.27534  1.0000
  O2          0.44120      0.58969      0.93973  1.0000
  O3          0.86481      0.66296      0.69312  1.0000
  O2          0.32796      0.24572      0.03577  1.0000
  O2          0.73690      0.10629      0.36669  1.0000
  O2          0.41431      0.01462      0.20132  1.0000
  O2          0.96941      0.43087      0.53207  1.0000
  O3          0.56803      0.55642      0.87037  1.0000
  O2          0.97045      0.57060      0.23804  1.0000
  O2          0.55540      0.00959      0.90551  1.0000
  O2          0.41543      0.43385      0.56863  1.0000
  O2          0.32937      0.10816      0.73621  1.0000
  O2          0.73538      0.66199      0.40370  1.0000
  O2          0.88473      0.24787      0.07281  1.0000
  O2          0.23546      0.90685      0.79151  1.0000
  O2          0.09224      0.36547      0.12837  1.0000
  O2          0.61698      0.75265      0.45937  1.0000
  O2          0.05865      0.78134      0.29297  1.0000
  O2          0.20714      0.31129      0.62355  1.0000
  O2          0.68058      0.92339      0.95560  1.0000
  O2          0.20651      0.92433      0.14549  1.0000
  O3          0.69924      0.80070      0.80812  1.0000
  O2          0.05951      0.31228      0.47624  1.0000
  O2          0.08722      0.75378      0.64596  1.0000
  O2          0.61531      0.89534      0.31174  1.0000
  O2          0.24226      0.36775      0.98072  1.0000
  O2          0.23466      0.50338      0.05479  1.0000
  O2          0.47968      0.75494      0.38588  1.0000
  O2          0.23121      0.76256      0.71912  1.0000
  O2          0.06285      0.17536      0.54980  1.0000
  O2          0.82225      0.92210      0.88512  1.0000
  O2          0.06470      0.92146      0.21893  1.0000
  F           0.10317      0.24196      0.05355  1.0000
  F           0.74061      0.88620      0.38505  1.0000
  F           0.06824      0.85933      0.72228  1.0000
  F           0.19318      0.43583      0.55085  1.0000
  F           0.56005      0.76320      0.87675  1.0000
  F           0.19469      0.79058      0.21935  1.0000
