data_cif

_audit_creation_method             'generated by GULP'

_symmetry_space_group_name_H-M     'P 1'
_symmetry_Int_Tables_number        1
_symmetry_cell_setting             triclinic

_cell_length_a                       12.0366
_cell_length_b                       11.9351
_cell_length_c                       29.6310
_cell_angle_alpha                   89.1156
_cell_angle_beta                    90.0000
_cell_angle_gamma                  120.2818

loop_
_atom_site_label
_atom_site_fract_x
_atom_site_fract_y
_atom_site_fract_z
_atom_site_occupancy
  Si          0.34583      0.71244      0.83585  1.0000
  Si          0.25513      0.65795      0.17131  1.0000
  Si          0.30078      0.61020      0.50115  1.0000
  Si          0.92832      0.94531      0.33702  1.0000
  Si          0.00674      0.98718      0.67032  1.0000
  Si          0.96345      0.04350      0.00730  1.0000
  Si          0.01618      0.04100      0.10734  1.0000
  Si          0.95899      0.93876      0.77265  1.0000
  Si          0.92279      0.99325      0.43718  1.0000
  Si          0.24554      0.60769      0.60119  1.0000
  Si          0.30861      0.70589      0.27148  1.0000
  Si          0.34516      0.66402      0.93818  1.0000
  Si          0.16079      0.71227      0.77003  1.0000
  Si          0.21991      0.45166      0.10618  1.0000
  Si          0.51283      0.78473      0.43646  1.0000
  Si          0.10448      0.91285      0.27316  1.0000
  Si          0.04397      0.19885      0.60347  1.0000
  Si          0.75841      0.87614      0.94125  1.0000
  Si          0.05370      0.86647      0.17203  1.0000
  Si          0.77412      0.93893      0.83847  1.0000
  Si          0.09384      0.19953      0.50232  1.0000
  Si          0.20788      0.77506      0.66725  1.0000
  Si          0.51723      0.73834      0.33534  1.0000
  Si          0.17071      0.45234      0.00503  1.0000
  Si          0.92298      0.70369      0.65188  1.0000
  Si          0.24255      0.24363      0.99231  1.0000
  Si          0.72766      0.02136      0.32175  1.0000
  Si          0.33298      0.93840      0.15741  1.0000
  Si          0.02251      0.40930      0.48767  1.0000
  Si          0.56261      0.65162      0.82080  1.0000
  Si          0.03190      0.62984      0.28674  1.0000
  Si          0.54489      0.94751      0.95662  1.0000
  Si          0.32452      0.40756      0.61619  1.0000
  Si          0.23658      0.99957      0.78770  1.0000
  Si          0.72018      0.71280      0.45108  1.0000
  Si          0.93882      0.24190      0.12082  1.0000
  Ge          0.90369      0.67124      0.75159  1.0000
  Si          0.29806      0.25053      0.09253  1.0000
  Si          0.71557      0.06557      0.42178  1.0000
  Si          0.38182      0.98954      0.25755  1.0000
  Si          0.96415      0.39891      0.58798  1.0000
  Si          0.56003      0.59295      0.92231  1.0000
  Si          0.97561      0.58563      0.18671  1.0000
  Ge          0.55806      0.97996      0.85691  1.0000
  Si          0.37313      0.40067      0.51596  1.0000
  Si          0.29268      0.05825      0.68619  1.0000
  Si          0.71787      0.66166      0.35094  1.0000
  Si          0.89084      0.25229      0.02052  1.0000
  Ge          0.61210      0.45552      0.76935  1.0000
  Si          0.51579      0.18973      0.10715  1.0000
  Si          0.77694      0.34526      0.43699  1.0000
  Si          0.66224      0.20514      0.27182  1.0000
  Si          0.74671      0.46067      0.60115  1.0000
  Si          0.48831      0.30744      0.94044  1.0000
  Si          0.75727      0.30594      0.17150  1.0000
  Ge          0.48218      0.19568      0.83914  1.0000
  Si          0.65166      0.46147      0.50134  1.0000
  Si          0.50647      0.34376      0.66805  1.0000
  Si          0.78271      0.44606      0.33667  1.0000
  Si          0.61163      0.19052      0.00735  1.0000
  O1          0.52752      0.32559      0.80424  1.0000
  O2          0.63599      0.26723      0.13979  1.0000
  O2          0.69436      0.38397      0.46870  1.0000
  O2          0.70466      0.32560      0.30425  1.0000
  O2          0.62525      0.38217      0.63408  1.0000
  O2          0.56868      0.26903      0.97441  1.0000
  O2          0.97712      0.91652      0.14023  1.0000
  O2          0.04394      0.07458      0.47027  1.0000
  O2          0.90143      0.00270      0.80673  1.0000
  O2          0.28385      0.73091      0.63334  1.0000
  O2          0.22365      0.57737      0.97122  1.0000
  O2          0.39254      0.66430      0.30309  1.0000
  O2          0.22433      0.64850      0.80176  1.0000
  O2          0.38620      0.73468      0.46826  1.0000
  O2          0.29496      0.57662      0.13823  1.0000
  O2          0.05384      0.98690      0.30540  1.0000
  O2          0.87854      0.92029      0.97515  1.0000
  O2          0.97187      0.07382      0.63728  1.0000
  O1          0.77033      0.53013      0.77535  1.0000
  O2          0.42456      0.25226      0.11253  1.0000
  O2          0.71345      0.19006      0.44194  1.0000
  O2          0.50826      0.11457      0.27757  1.0000
  O2          0.83707      0.39676      0.60750  1.0000
  O2          0.55354      0.46466      0.94357  1.0000
  O2          0.84899      0.46114      0.16655  1.0000
  O1          0.56579      0.12106      0.83314  1.0000
  O2          0.49790      0.39894      0.49597  1.0000
  O2          0.41448      0.18654      0.66492  1.0000
  O2          0.71929      0.53663      0.33092  1.0000
  O2          0.76591      0.25443      0.00100  1.0000
  O2          0.57286      0.20708      0.05732  1.0000
  O2          0.76780      0.39006      0.38687  1.0000
  O3          0.55746      0.38850      0.71663  1.0000
  O2          0.69139      0.44412      0.55117  1.0000
  O3          0.49456      0.26271      0.89186  1.0000
  O2          0.70334      0.26114      0.22163  1.0000
  O3          0.56162      0.56732      0.78009  1.0000
  O2          0.43189      0.03671      0.11902  1.0000
  O2          0.92723      0.41366      0.44981  1.0000
  O2          0.73047      0.12161      0.28345  1.0000
  O2          0.83340      0.61448      0.61053  1.0000
  O2          0.33805      0.24154      0.95448  1.0000
  O2          0.83916      0.23754      0.15869  1.0000
  O3          0.31990      0.08387      0.82840  1.0000
  O2          0.72078      0.61449      0.48947  1.0000
  O2          0.42210      0.40965      0.65401  1.0000
  O2          0.93446      0.52959      0.32505  1.0000
  O2          0.54451      0.03671      0.99796  1.0000
  O2          0.96132      0.98409      0.05742  1.0000
  O2          0.98254      0.99850      0.38728  1.0000
  O2          0.95013      0.98301      0.72039  1.0000
  O2          0.30282      0.66710      0.55107  1.0000
  O2          0.29272      0.66819      0.88811  1.0000
  O2          0.30964      0.65270      0.22121  1.0000
  O3          0.01018      0.62166      0.77409  1.0000
  O2          0.30766      0.38371      0.10945  1.0000
  O2          0.58226      0.94160      0.43962  1.0000
  O2          0.26048      0.99974      0.27626  1.0000
  O2          0.95619      0.26663      0.60711  1.0000
  O2          0.68506      0.71859      0.94242  1.0000
  O2          0.96626      0.70960      0.16887  1.0000
  O3          0.71413      0.02954      0.83441  1.0000
  O2          0.24956      0.26749      0.49904  1.0000
  O2          0.29208      0.93261      0.66607  1.0000
  O2          0.58633      0.65145      0.33224  1.0000
  O2          0.01516      0.38456      0.00139  1.0000
  O2          0.42514      0.64408      0.81982  1.0000
  O2          0.33117      0.80364      0.14952  1.0000
  O2          0.15746      0.54353      0.47981  1.0000
  O2          0.86128      0.02161      0.31456  1.0000
  O2          0.93498      0.84570      0.64716  1.0000
  O2          0.10643      0.11134      0.98482  1.0000
  O2          0.93953      0.10767      0.12869  1.0000
  O2          0.10666      0.00712      0.78867  1.0000
  O2          0.85313      0.84756      0.45897  1.0000
  O2          0.32069      0.53986      0.62368  1.0000
  O2          0.16527      0.62959      0.29393  1.0000
  O2          0.41487      0.80549      0.96134  1.0000
  O3          0.41611      0.86560      0.82810  1.0000
  O2          0.09964      0.58430      0.16672  1.0000
  O2          0.37311      0.52706      0.49591  1.0000
  O2          0.84553      0.78878      0.33191  1.0000
  O2          0.16142      0.05275      0.67138  1.0000
  O2          0.88910      0.12502      0.00187  1.0000
  O2          0.17165      0.12414      0.11259  1.0000
  O3          0.87611      0.78560      0.78039  1.0000
  O2          0.84094      0.06690      0.44177  1.0000
  O2          0.08968      0.52618      0.60663  1.0000
  O2          0.38235      0.86242      0.27658  1.0000
  O2          0.43428      0.59845      0.93712  1.0000
  O3          0.84331      0.62386      0.69528  1.0000
  O2          0.31477      0.24630      0.03867  1.0000
  O2          0.72115      0.08921      0.36780  1.0000
  O2          0.40217      0.01090      0.20354  1.0000
  O2          0.94761      0.40168      0.53397  1.0000
  O2          0.57363      0.58674      0.86839  1.0000
  O2          0.95754      0.56199      0.24070  1.0000
  O3          0.54505      0.02733      0.91322  1.0000
  O2          0.39408      0.40490      0.56983  1.0000
  O2          0.31249      0.06446      0.74010  1.0000
  O2          0.71687      0.64030      0.40495  1.0000
  O2          0.87153      0.24952      0.07453  1.0000
  O2          0.20551      0.85252      0.79237  1.0000
  O2          0.07853      0.36691      0.12936  1.0000
  O2          0.59475      0.72560      0.45977  1.0000
  O2          0.04656      0.76948      0.29590  1.0000
  O2          0.18581      0.27984      0.62541  1.0000
  O2          0.67028      0.93045      0.96171  1.0000
  O2          0.19475      0.92560      0.14873  1.0000
  O2          0.67859      0.79868      0.81613  1.0000
  O2          0.03721      0.28428      0.47913  1.0000
  O2          0.06542      0.72074      0.64678  1.0000
  O2          0.60267      0.88172      0.31259  1.0000
  O2          0.23157      0.37136      0.98309  1.0000
  O2          0.22141      0.50664      0.05536  1.0000
  O2          0.46212      0.73429      0.38582  1.0000
  O2          0.21029      0.72144      0.71763  1.0000
  O2          0.04036      0.14455      0.55313  1.0000
  O2          0.81445      0.92976      0.89087  1.0000
  O2          0.05343      0.91691      0.22267  1.0000
  F           0.09088      0.24437      0.05598  1.0000
  F           0.72317      0.86692      0.38652  1.0000
  F           0.04612      0.81565      0.72447  1.0000
  F           0.17211      0.40683      0.55252  1.0000
  F           0.55607      0.83554      0.88402  1.0000
  F           0.18184      0.78428      0.22198  1.0000
