data_cif

_audit_creation_method             'generated by GULP'

_symmetry_space_group_name_H-M     'P 1'
_symmetry_Int_Tables_number        1
_symmetry_cell_setting             triclinic

_cell_length_a                       12.0190
_cell_length_b                       11.9839
_cell_length_c                       29.5746
_cell_angle_alpha                   89.6459
_cell_angle_beta                    90.0820
_cell_angle_gamma                  120.1591

loop_
_atom_site_label
_atom_site_fract_x
_atom_site_fract_y
_atom_site_fract_z
_atom_site_occupancy
  Si          0.34583      0.71244      0.83585  1.0000
  Si          0.24881      0.65322      0.16834  1.0000
  Si          0.30094      0.61669      0.49831  1.0000
  Si          0.92372      0.94572      0.33370  1.0000
  Si          0.99738      0.99443      0.66589  1.0000
  Si          0.95629      0.03704      0.00320  1.0000
  Si          0.01063      0.03604      0.10361  1.0000
  Si          0.95085      0.95164      0.76891  1.0000
  Si          0.92125      0.99727      0.43409  1.0000
  Si          0.24412      0.61764      0.59817  1.0000
  Si          0.30300      0.70586      0.26866  1.0000
  Si          0.34154      0.65706      0.93607  1.0000
  Si          0.16881      0.73730      0.76893  1.0000
  Si          0.21445      0.44524      0.10364  1.0000
  Si          0.51229      0.79053      0.43378  1.0000
  Si          0.09819      0.91056      0.26959  1.0000
  Si          0.04170      0.20713      0.60001  1.0000
  Si          0.74950      0.86586      0.93726  1.0000
  Si          0.04622      0.86096      0.16818  1.0000
  Si          0.75646      0.92420      0.83631  1.0000
  Si          0.09383      0.20616      0.49887  1.0000
  Si          0.20512      0.78380      0.66497  1.0000
  Si          0.51353      0.74093      0.33246  1.0000
  Si          0.16470      0.44880      0.00218  1.0000
  Si          0.92000      0.71316      0.64843  1.0000
  Si          0.23423      0.23891      0.98933  1.0000
  Si          0.72303      0.02238      0.31878  1.0000
  Si          0.32587      0.93189      0.15429  1.0000
  Si          0.02281      0.41508      0.48327  1.0000
  Si          0.55019      0.64320      0.81923  1.0000
  Si          0.02620      0.62976      0.28340  1.0000
  Si          0.54081      0.93735      0.95070  1.0000
  Si          0.32086      0.41722      0.61437  1.0000
  Si          0.23461      0.02354      0.78120  1.0000
  Si          0.71972      0.71864      0.44801  1.0000
  Si          0.93423      0.23698      0.11782  1.0000
  Ge          0.90819      0.68931      0.74839  1.0000
  Si          0.29210      0.24440      0.08943  1.0000
  Si          0.71369      0.06967      0.41914  1.0000
  Si          0.37599      0.98748      0.25457  1.0000
  Si          0.96516      0.40786      0.58355  1.0000
  Si          0.55086      0.58639      0.91977  1.0000
  Si          0.96862      0.58159      0.18312  1.0000
  Si          0.55109      0.99318      0.85022  1.0000
  Si          0.37258      0.40728      0.51435  1.0000
  Si          0.28441      0.06646      0.67900  1.0000
  Si          0.71421      0.66361      0.34767  1.0000
  Si          0.88570      0.24702      0.01741  1.0000
  Ge          0.62063      0.46317      0.76869  1.0000
  Si          0.50861      0.17994      0.10361  1.0000
  Si          0.77496      0.34924      0.43328  1.0000
  Si          0.65653      0.20414      0.26845  1.0000
  Si          0.74887      0.47030      0.59725  1.0000
  Si          0.48204      0.30325      0.93918  1.0000
  Si          0.75178      0.30122      0.16806  1.0000
  Ge          0.48158      0.20726      0.83667  1.0000
  Si          0.65100      0.46840      0.49765  1.0000
  Ge          0.50423      0.35073      0.66590  1.0000
  Si          0.77756      0.44704      0.33301  1.0000
  Si          0.60532      0.18292      0.00317  1.0000
  O1          0.57220      0.34777      0.81053  1.0000
  O2          0.63024      0.25994      0.13587  1.0000
  O2          0.69363      0.39030      0.46498  1.0000
  O2          0.69911      0.32640      0.30036  1.0000
  O3          0.63426      0.39338      0.63160  1.0000
  O2          0.56381      0.26863      0.97389  1.0000
  O2          0.97102      0.91167      0.13606  1.0000
  O2          0.04394      0.08055      0.46689  1.0000
  O2          0.88103      0.00379      0.80325  1.0000
  O2          0.28132      0.73931      0.63114  1.0000
  O2          0.21869      0.57415      0.96918  1.0000
  O2          0.38779      0.66583      0.30049  1.0000
  O2          0.22783      0.67104      0.80105  1.0000
  O2          0.38596      0.73986      0.46569  1.0000
  O2          0.28910      0.57061      0.13592  1.0000
  O2          0.04800      0.98569      0.30178  1.0000
  O2          0.87223      0.91391      0.97078  1.0000
  O2          0.96439      0.08195      0.63290  1.0000
  O1          0.77930      0.54705      0.77131  1.0000
  O2          0.41898      0.24443      0.10855  1.0000
  O2          0.71239      0.19508      0.43901  1.0000
  O2          0.50269      0.11346      0.27434  1.0000
  O2          0.83928      0.40697      0.60297  1.0000
  O2          0.54968      0.45889      0.93925  1.0000
  O2          0.84198      0.45590      0.16325  1.0000
  O3          0.55000      0.11306      0.82710  1.0000
  O2          0.49680      0.40577      0.49353  1.0000
  O3          0.40208      0.18654      0.65550  1.0000
  O2          0.71422      0.53768      0.32777  1.0000
  O2          0.75955      0.24711      0.99770  1.0000
  O2          0.56339      0.18845      0.05392  1.0000
  O2          0.76295      0.39076      0.38306  1.0000
  O1          0.55093      0.37615      0.72013  1.0000
  O2          0.68998      0.45151      0.54762  1.0000
  O3          0.48238      0.23932      0.89298  1.0000
  O2          0.69719      0.25742      0.21813  1.0000
  O3          0.55024      0.55728      0.77843  1.0000
  O2          0.42451      0.02873      0.11617  1.0000
  O2          0.92631      0.41792      0.44538  1.0000
  O2          0.72529      0.12171      0.28072  1.0000
  O2          0.83301      0.62409      0.60650  1.0000
  O2          0.33150      0.23974      0.95161  1.0000
  O2          0.83515      0.23397      0.15581  1.0000
  O3          0.32245      0.12103      0.81928  1.0000
  O2          0.72022      0.62041      0.48605  1.0000
  O3          0.41756      0.42591      0.65340  1.0000
  O2          0.92911      0.53056      0.32159  1.0000
  O2          0.53738      0.03306      0.98875  1.0000
  O2          0.95492      0.97938      0.05346  1.0000
  O2          0.97946      0.00016      0.38407  1.0000
  O2          0.94438      0.99538      0.71641  1.0000
  O2          0.30077      0.67511      0.54803  1.0000
  O2          0.28464      0.65688      0.88587  1.0000
  O2          0.30377      0.65063      0.21854  1.0000
  O3          0.01847      0.64986      0.77406  1.0000
  O2          0.30211      0.37705      0.10735  1.0000
  O2          0.58113      0.94675      0.43734  1.0000
  O2          0.25423      0.99767      0.27303  1.0000
  O2          0.95526      0.27621      0.60303  1.0000
  O2          0.68032      0.70916      0.93973  1.0000
  O2          0.95891      0.70455      0.16509  1.0000
  O2          0.68727      0.00998      0.83392  1.0000
  O2          0.24975      0.27480      0.49647  1.0000
  O2          0.28719      0.93953      0.66289  1.0000
  O2          0.58228      0.65383      0.32934  1.0000
  O2          0.00857      0.38008      0.99901  1.0000
  O2          0.41400      0.63853      0.81434  1.0000
  O2          0.32434      0.79753      0.14658  1.0000
  O2          0.15812      0.54804      0.47601  1.0000
  O2          0.85631      0.02167      0.31158  1.0000
  O2          0.92522      0.85164      0.64378  1.0000
  O2          0.09985      0.10558      0.98134  1.0000
  O2          0.93485      0.10327      0.12556  1.0000
  O2          0.09963      0.02152      0.78523  1.0000
  O2          0.85275      0.85309      0.45614  1.0000
  O2          0.31852      0.55008      0.62071  1.0000
  O2          0.16001      0.63028      0.29115  1.0000
  O2          0.40969      0.80018      0.95841  1.0000
  O2          0.42482      0.86798      0.83065  1.0000
  O2          0.09321      0.58043      0.16347  1.0000
  O2          0.37403      0.53408      0.49489  1.0000
  O2          0.84079      0.78980      0.32855  1.0000
  O2          0.15113      0.05697      0.66441  1.0000
  O2          0.88432      0.12062      0.99821  1.0000
  O2          0.16636      0.11800      0.10908  1.0000
  O3          0.87360      0.79976      0.77613  1.0000
  O2          0.83964      0.07123      0.43903  1.0000
  O2          0.08864      0.53586      0.60280  1.0000
  O2          0.37712      0.86187      0.27397  1.0000
  O2          0.42263      0.58212      0.93875  1.0000
  O3          0.84335      0.63603      0.69224  1.0000
  O2          0.30849      0.24243      0.03543  1.0000
  O2          0.71729      0.09071      0.36508  1.0000
  O2          0.39539      0.00590      0.20050  1.0000
  O2          0.94828      0.40913      0.52945  1.0000
  O2          0.55597      0.57115      0.86551  1.0000
  O2          0.95143      0.56068      0.23724  1.0000
  O2          0.54389      0.01162      0.90430  1.0000
  O2          0.39253      0.40984      0.56866  1.0000
  O2          0.30455      0.08633      0.73317  1.0000
  O2          0.71546      0.64499      0.40179  1.0000
  O2          0.86617      0.24404      0.07150  1.0000
  O2          0.21952      0.88325      0.78774  1.0000
  O2          0.07352      0.36185      0.12691  1.0000
  O2          0.59443      0.73177      0.45703  1.0000
  O2          0.04017      0.76878      0.29262  1.0000
  O2          0.18263      0.28873      0.62323  1.0000
  O2          0.66688      0.92505      0.95948  1.0000
  O2          0.18725      0.91829      0.14531  1.0000
  O2          0.67285      0.78554      0.81248  1.0000
  O2          0.03790      0.29043      0.47519  1.0000
  O2          0.06240      0.72939      0.64436  1.0000
  O2          0.59838      0.88286      0.30970  1.0000
  O2          0.22105      0.36430      0.97995  1.0000
  O2          0.21603      0.50035      0.05302  1.0000
  O2          0.46009      0.73917      0.38312  1.0000
  O2          0.21058      0.73575      0.71591  1.0000
  O2          0.04009      0.15273      0.54963  1.0000
  O2          0.80786      0.92115      0.88705  1.0000
  O2          0.04620      0.91246      0.21896  1.0000
  F           0.08553      0.23893      0.05375  1.0000
  F           0.72070      0.87022      0.38406  1.0000
  F           0.04660      0.83190      0.72068  1.0000
  F           0.17184      0.41354      0.54993  1.0000
  F           0.54528      0.79037      0.88625  1.0000
  F           0.17563      0.78115      0.21927  1.0000
