data_cif

_audit_creation_method             'generated by GULP'

_symmetry_space_group_name_H-M     'P 1'
_symmetry_Int_Tables_number        1
_symmetry_cell_setting             triclinic

_cell_length_a                       12.0000
_cell_length_b                       11.9920
_cell_length_c                       29.4556
_cell_angle_alpha                   90.6263
_cell_angle_beta                    90.0686
_cell_angle_gamma                  120.0582

loop_
_atom_site_label
_atom_site_fract_x
_atom_site_fract_y
_atom_site_fract_z
_atom_site_occupancy
  Si          0.34583      0.71244      0.83585  1.0000
  Si          0.27140      0.67399      0.16713  1.0000
  Si          0.33296      0.65697      0.49931  1.0000
  Si          0.94741      0.97529      0.33133  1.0000
  Si          0.03801      0.04039      0.66523  1.0000
  Si          0.97565      0.05301      0.99906  1.0000
  Si          0.02950      0.05152      0.09980  1.0000
  Si          0.97188      0.99085      0.76766  1.0000
  Si          0.95183      0.03475      0.43211  1.0000
  Si          0.27806      0.65595      0.60011  1.0000
  Si          0.32632      0.73418      0.26783  1.0000
  Si          0.35360      0.66785      0.93638  1.0000
  Si          0.19148      0.76722      0.77093  1.0000
  Si          0.23358      0.46045      0.10310  1.0000
  Si          0.54178      0.82872      0.43451  1.0000
  Si          0.11972      0.93690      0.26634  1.0000
  Si          0.07648      0.24724      0.59871  1.0000
  Si          0.76446      0.88003      0.93313  1.0000
  Si          0.06703      0.87991      0.16448  1.0000
  Si          0.75462      0.92510      0.83171  1.0000
  Si          0.12730      0.24685      0.49690  1.0000
  Si          0.24533      0.82905      0.66810  1.0000
  Si          0.53731      0.77203      0.33266  1.0000
  Si          0.18166      0.46113      0.00146  1.0000
  Si          0.95831      0.75679      0.65098  1.0000
  Si          0.25438      0.25345      0.98578  1.0000
  Si          0.74576      0.05172      0.31779  1.0000
  Si          0.34742      0.95073      0.15154  1.0000
  Si          0.05486      0.45505      0.48338  1.0000
  Si          0.54908      0.64210      0.81980  1.0000
  Si          0.04881      0.65791      0.28115  1.0000
  Si          0.55341      0.94904      0.94905  1.0000
  Si          0.35636      0.45599      0.61361  1.0000
  Ge          0.23626      0.03810      0.77581  1.0000
  Si          0.75105      0.75842      0.44728  1.0000
  Si          0.95331      0.25244      0.11603  1.0000
  Ge          0.90913      0.70206      0.75418  1.0000
  Si          0.31068      0.25954      0.08675  1.0000
  Si          0.74287      0.10619      0.41861  1.0000
  Si          0.39804      0.01382      0.25227  1.0000
  Si          0.99823      0.44712      0.58411  1.0000
  Si          0.56424      0.59923      0.92030  1.0000
  Si          0.99043      0.60218      0.18046  1.0000
  Si          0.54946      0.99601      0.84814  1.0000
  Si          0.40620      0.44869      0.51278  1.0000
  Si          0.32598      0.11419      0.68055  1.0000
  Si          0.73881      0.69492      0.34672  1.0000
  Si          0.90302      0.26104      0.01538  1.0000
  Ge          0.62363      0.46686      0.76715  1.0000
  Si          0.52804      0.19697      0.10157  1.0000
  Si          0.80659      0.38710      0.43235  1.0000
  Si          0.67860      0.23132      0.26698  1.0000
  Si          0.78238      0.51082      0.59700  1.0000
  Si          0.50366      0.32227      0.93616  1.0000
  Si          0.77318      0.32091      0.16624  1.0000
  Ge          0.48558      0.21562      0.83298  1.0000
  Si          0.68646      0.51187      0.49667  1.0000
  Si          0.53953      0.38930      0.66147  1.0000
  Si          0.80222      0.47767      0.33165  1.0000
  Si          0.62302      0.19839      0.00081  1.0000
  O1          0.58592      0.33496      0.79670  1.0000
  O2          0.64975      0.27741      0.13439  1.0000
  O2          0.72563      0.43109      0.46335  1.0000
  O2          0.72133      0.35476      0.29924  1.0000
  O2          0.65645      0.43094      0.62666  1.0000
  O2          0.58073      0.27938      0.96981  1.0000
  O2          0.99093      0.92770      0.13168  1.0000
  O2          0.07718      0.12095      0.46418  1.0000
  O2          0.87003      0.01240      0.79695  1.0000
  O2          0.31616      0.77823      0.63378  1.0000
  O2          0.23290      0.58714      0.96991  1.0000
  O2          0.41013      0.69578      0.30079  1.0000
  O2          0.22664      0.67560      0.80110  1.0000
  O2          0.41764      0.78034      0.46736  1.0000
  O2          0.31009      0.58690      0.13570  1.0000
  O2          0.06916      0.01336      0.29838  1.0000
  O2          0.89145      0.93155      0.96518  1.0000
  O2          0.00150      0.12222      0.63104  1.0000
  O1          0.78355      0.57096      0.77750  1.0000
  O2          0.43685      0.25970      0.10685  1.0000
  O2          0.74391      0.23356      0.43855  1.0000
  O2          0.52449      0.14173      0.27203  1.0000
  O2          0.87131      0.44603      0.60377  1.0000
  O2          0.56647      0.47694      0.94230  1.0000
  O2          0.86421      0.47470      0.16051  1.0000
  O3          0.54818      0.11405      0.82590  1.0000
  O2          0.53195      0.44825      0.49277  1.0000
  O2          0.44512      0.23477      0.65531  1.0000
  O2          0.73725      0.56704      0.32714  1.0000
  O2          0.77707      0.26165      0.99558  1.0000
  O2          0.58258      0.20881      0.05155  1.0000
  O2          0.79373      0.42459      0.38169  1.0000
  O3          0.60334      0.43074      0.70976  1.0000
  O2          0.73461      0.50138      0.54598  1.0000
  O3          0.52210      0.28581      0.88653  1.0000
  O2          0.72116      0.28315      0.21679  1.0000
  O3          0.53975      0.54472      0.78038  1.0000
  O2          0.44563      0.04572      0.11337  1.0000
  O2          0.95795      0.45691      0.44521  1.0000
  O2          0.74623      0.14837      0.27959  1.0000
  O2          0.86785      0.66221      0.61033  1.0000
  O2          0.35123      0.25282      0.94755  1.0000
  O2          0.85474      0.25092      0.15425  1.0000
  O1          0.33001      0.14359      0.82070  1.0000
  O2          0.75410      0.66303      0.48539  1.0000
  O2          0.45537      0.45830      0.65166  1.0000
  O2          0.95273      0.56126      0.31944  1.0000
  O2          0.55425      0.04720      0.98763  1.0000
  O2          0.97351      0.99464      0.04911  1.0000
  O2          0.00662      0.03325      0.38164  1.0000
  O2          0.97457      0.03480      0.71451  1.0000
  O2          0.33471      0.71385      0.55014  1.0000
  O2          0.29041      0.66144      0.88655  1.0000
  O2          0.32748      0.67581      0.21774  1.0000
  O3          0.03769      0.68270      0.76782  1.0000
  O2          0.32075      0.39166      0.10603  1.0000
  O2          0.61132      0.98511      0.43760  1.0000
  O2          0.27582      0.02470      0.27015  1.0000
  O2          0.98931      0.31594      0.60269  1.0000
  O2          0.69644      0.72448      0.93774  1.0000
  O2          0.98005      0.72349      0.16178  1.0000
  O2          0.68217      0.00700      0.83099  1.0000
  O2          0.28335      0.31575      0.49434  1.0000
  O2          0.32681      0.98460      0.66363  1.0000
  O2          0.60558      0.68429      0.32909  1.0000
  O2          0.02571      0.39339      0.99782  1.0000
  O2          0.41231      0.63607      0.81409  1.0000
  O2          0.34661      0.81611      0.14460  1.0000
  O2          0.18926      0.58895      0.47705  1.0000
  O2          0.87829      0.04978      0.30979  1.0000
  O2          0.97061      0.89598      0.64371  1.0000
  O2          0.11934      0.12049      0.97757  1.0000
  O2          0.95391      0.11873      0.12274  1.0000
  O3          0.11030      0.07088      0.78961  1.0000
  O2          0.88495      0.89282      0.45484  1.0000
  O2          0.35298      0.58801      0.62229  1.0000
  O2          0.18317      0.65990      0.28977  1.0000
  O2          0.42397      0.81262      0.95810  1.0000
  O2          0.42467      0.86667      0.82996  1.0000
  O2          0.11570      0.60059      0.16156  1.0000
  O2          0.40565      0.57412      0.49383  1.0000
  O2          0.86396      0.81920      0.32671  1.0000
  O2          0.19299      0.10872      0.66502  1.0000
  O2          0.90228      0.13535      0.99499  1.0000
  O2          0.18530      0.13290      0.10547  1.0000
  O3          0.91363      0.83751      0.77499  1.0000
  O2          0.87047      0.10910      0.43771  1.0000
  O2          0.12206      0.57534      0.60418  1.0000
  O2          0.40009      0.89036      0.27262  1.0000
  O2          0.43650      0.59514      0.93989  1.0000
  O3          0.88235      0.69026      0.69585  1.0000
  O2          0.32800      0.25783      0.03246  1.0000
  O2          0.74266      0.12307      0.36433  1.0000
  O2          0.41706      0.02789      0.19799  1.0000
  O2          0.98011      0.44823      0.52985  1.0000
  O2          0.56178      0.57424      0.86577  1.0000
  O2          0.97372      0.58544      0.23481  1.0000
  O2          0.54724      0.01660      0.90274  1.0000
  O2          0.42623      0.45242      0.56707  1.0000
  O3          0.35037      0.13894      0.73357  1.0000
  O2          0.74372      0.68085      0.40104  1.0000
  O2          0.88390      0.25840      0.06972  1.0000
  O3          0.24247      0.90230      0.79633  1.0000
  O2          0.09273      0.37709      0.12603  1.0000
  O2          0.62627      0.77221      0.45727  1.0000
  O2          0.06190      0.79704      0.28983  1.0000
  O2          0.21793      0.32928      0.62200  1.0000
  O2          0.68231      0.94023      0.95553  1.0000
  O2          0.20808      0.93546      0.14200  1.0000
  O2          0.67419      0.78117      0.80933  1.0000
  O2          0.07087      0.33110      0.47402  1.0000
  O2          0.09916      0.77185      0.65019  1.0000
  O2          0.62043      0.91196      0.30941  1.0000
  O2          0.23884      0.37777      0.97784  1.0000
  O2          0.23402      0.51384      0.05258  1.0000
  O2          0.48674      0.77389      0.38377  1.0000
  O2          0.25129      0.78395      0.71919  1.0000
  O2          0.07436      0.19367      0.54761  1.0000
  O2          0.81487      0.92745      0.88171  1.0000
  O2          0.06726      0.93510      0.21527  1.0000
  F           0.10327      0.25334      0.05146  1.0000
  F           0.74777      0.90409      0.38338  1.0000
  F           0.13148      0.92963      0.72835  1.0000
  F           0.20441      0.45457      0.54961  1.0000
  F           0.55156      0.79009      0.88388  1.0000
  F           0.19792      0.80478      0.21699  1.0000
