data_cif

_audit_creation_method             'generated by GULP'

_symmetry_space_group_name_H-M     'P 1'
_symmetry_Int_Tables_number        1
_symmetry_cell_setting             triclinic

_cell_length_a                       11.9860
_cell_length_b                       11.9885
_cell_length_c                       29.5984
_cell_angle_alpha                   89.9840
_cell_angle_beta                    89.8230
_cell_angle_gamma                  120.1217

loop_
_atom_site_label
_atom_site_fract_x
_atom_site_fract_y
_atom_site_fract_z
_atom_site_occupancy
  Si          0.04320      0.54553      0.83100  1.0000
  Si          0.95765      0.49690      0.16098  1.0000
  Si          0.00767      0.46604      0.49023  1.0000
  Si          0.63018      0.79187      0.32534  1.0000
  Si          0.71043      0.84785      0.65759  1.0000
  Si          0.66652      0.88221      0.99445  1.0000
  Si          0.71753      0.87685      0.09467  1.0000
  Si          0.65519      0.80144      0.76009  1.0000
  Si          0.62875      0.84567      0.42556  1.0000
  Si          0.95308      0.46714      0.59049  1.0000
  Si          0.01006      0.55198      0.26110  1.0000
  Si          0.04803      0.50010      0.93117  1.0000
  Ge          0.88048      0.59149      0.76258  1.0000
  Si          0.92232      0.28637      0.09732  1.0000
  Si          0.21961      0.63970      0.42624  1.0000
  Si          0.80362      0.75524      0.26057  1.0000
  Si          0.75037      0.05787      0.59147  1.0000
  Si          0.45816      0.71346      0.92840  1.0000
  Si          0.75337      0.70308      0.15924  1.0000
  Si          0.45411      0.76324      0.82726  1.0000
  Si          0.80064      0.05553      0.49027  1.0000
  Si          0.92090      0.63953      0.65701  1.0000
  Si          0.22005      0.58795      0.32510  1.0000
  Si          0.87324      0.29088      0.99620  1.0000
  Si          0.63384      0.56569      0.64036  1.0000
  Si          0.94566      0.08341      0.98110  1.0000
  Si          0.42924      0.86889      0.31089  1.0000
  Si          0.03436      0.77452      0.14584  1.0000
  Si          0.72931      0.26454      0.47610  1.0000
  Si          0.25003      0.47888      0.81387  1.0000
  Si          0.73196      0.47504      0.27505  1.0000
  Si          0.24586      0.78077      0.94301  1.0000
  Si          0.03072      0.26650      0.60512  1.0000
  Si          0.93882      0.87696      0.77595  1.0000
  Si          0.42749      0.56763      0.44033  1.0000
  Si          0.64110      0.07756      0.11047  1.0000
  Ge          0.61446      0.53716      0.74072  1.0000
  Si          0.99966      0.08586      0.08139  1.0000
  Si          0.42083      0.91836      0.41116  1.0000
  Si          0.08257      0.83261      0.24606  1.0000
  Si          0.67192      0.25784      0.57647  1.0000
  Si          0.25942      0.43213      0.91449  1.0000
  Si          0.67624      0.42451      0.17482  1.0000
  Si          0.24468      0.82890      0.84246  1.0000
  Si          0.07981      0.25737      0.50481  1.0000
  Si          0.99722      0.92111      0.67330  1.0000
  Si          0.42075      0.51034      0.34008  1.0000
  Si          0.59369      0.08990      0.01029  1.0000
  Ge          0.32387      0.30643      0.75833  1.0000
  Si          0.21645      0.02240      0.09561  1.0000
  Si          0.48221      0.19790      0.42558  1.0000
  Si          0.36278      0.05001      0.26062  1.0000
  Si          0.45485      0.32069      0.59007  1.0000
  Si          0.19554      0.15302      0.93095  1.0000
  Si          0.45931      0.14393      0.16029  1.0000
  Ge          0.18882      0.05560      0.82724  1.0000
  Si          0.35942      0.31880      0.49009  1.0000
  Si          0.21248      0.20251      0.65651  1.0000
  Si          0.48345      0.29320      0.32527  1.0000
  Si          0.31383      0.02764      0.99510  1.0000
  O1          0.28407      0.17617      0.79258  1.0000
  O2          0.33808      0.10182      0.12789  1.0000
  O2          0.40152      0.23963      0.45756  1.0000
  O2          0.40434      0.17173      0.29288  1.0000
  O2          0.33443      0.24521      0.62351  1.0000
  O2          0.27436      0.11133      0.96401  1.0000
  O2          0.67793      0.75217      0.12665  1.0000
  O2          0.75162      0.93006      0.45819  1.0000
  O2          0.57658      0.84635      0.79354  1.0000
  O2          0.99368      0.59223      0.62210  1.0000
  O2          0.92628      0.41798      0.96467  1.0000
  O2          0.09393      0.51228      0.29333  1.0000
  O3          0.92646      0.50542      0.79704  1.0000
  O2          0.09292      0.58996      0.45812  1.0000
  O2          0.99781      0.41176      0.12957  1.0000
  O2          0.75346      0.83101      0.29271  1.0000
  O2          0.58325      0.76212      0.96070  1.0000
  O2          0.67546      0.93280      0.62441  1.0000
  O1          0.48086      0.39746      0.76310  1.0000
  O2          0.12554      0.08539      0.10123  1.0000
  O2          0.41952      0.04387      0.43110  1.0000
  O2          0.20848      0.95934      0.26596  1.0000
  O2          0.54452      0.25610      0.59621  1.0000
  O2          0.26058      0.30787      0.93573  1.0000
  O2          0.55034      0.29814      0.15481  1.0000
  O3          0.24125      0.94690      0.81979  1.0000
  O2          0.20530      0.25625      0.48463  1.0000
  O2          0.11908      0.04669      0.65151  1.0000
  O2          0.41985      0.38368      0.32024  1.0000
  O2          0.46835      0.09122      0.99043  1.0000
  O2          0.27041      0.03504      0.04548  1.0000
  O2          0.47035      0.23867      0.37536  1.0000
  O3          0.25999      0.23857      0.70622  1.0000
  O2          0.39840      0.30300      0.54018  1.0000
  O3          0.20812      0.11134      0.88155  1.0000
  O2          0.40467      0.10372      0.21048  1.0000
  O3          0.24268      0.38613      0.77423  1.0000
  O2          0.13357      0.87082      0.10766  1.0000
  O2          0.63342      0.26702      0.43802  1.0000
  O2          0.43140      0.96747      0.27282  1.0000
  O2          0.54324      0.47402      0.59934  1.0000
  O2          0.04343      0.08423      0.94294  1.0000
  O2          0.54176      0.07475      0.14861  1.0000
  O3          0.02708      0.98145      0.81282  1.0000
  O2          0.42893      0.47070      0.47848  1.0000
  O2          0.12924      0.26997      0.64315  1.0000
  O2          0.63496      0.37662      0.31331  1.0000
  O2          0.24486      0.87775      0.98112  1.0000
  O2          0.66294      0.82171      0.04424  1.0000
  O2          0.68700      0.84747      0.37552  1.0000
  O2          0.65434      0.84723      0.70774  1.0000
  O2          0.00937      0.52315      0.54033  1.0000
  O2          0.98628      0.49512      0.88172  1.0000
  O2          0.01238      0.49602      0.21121  1.0000
  O1          0.71854      0.49527      0.76655  1.0000
  O2          0.00955      0.21756      0.10032  1.0000
  O2          0.28837      0.79582      0.42961  1.0000
  O2          0.95988      0.84275      0.26398  1.0000
  O2          0.66302      0.12632      0.59541  1.0000
  O2          0.38984      0.55746      0.93227  1.0000
  O2          0.66627      0.54670      0.15642  1.0000
  O2          0.38049      0.84480      0.82527  1.0000
  O2          0.95690      0.12419      0.48741  1.0000
  O2          0.00237      0.79662      0.65528  1.0000
  O2          0.28860      0.50053      0.32190  1.0000
  O2          0.71711      0.22300      0.99260  1.0000
  O2          0.11263      0.47202      0.80966  1.0000
  O2          0.03345      0.64015      0.13861  1.0000
  O2          0.86398      0.39806      0.46858  1.0000
  O2          0.56255      0.86765      0.30346  1.0000
  O2          0.64051      0.70459      0.63590  1.0000
  O2          0.81091      0.95046      0.97285  1.0000
  O2          0.64118      0.94342      0.11719  1.0000
  O2          0.80251      0.87388      0.77834  1.0000
  O2          0.56088      0.70231      0.44791  1.0000
  O2          0.02705      0.39842      0.61304  1.0000
  O2          0.86629      0.47656      0.28320  1.0000
  O2          0.11639      0.64399      0.95291  1.0000
  O2          0.11869      0.70161      0.82347  1.0000
  O2          0.80180      0.42346      0.15561  1.0000
  O2          0.07987      0.38270      0.48502  1.0000
  O2          0.54738      0.63588      0.32062  1.0000
  O2          0.86523      0.91278      0.65726  1.0000
  O2          0.59315      0.96459      0.99026  1.0000
  O2          0.87345      0.95852      0.10015  1.0000
  O3          0.57932      0.64975      0.76627  1.0000
  O2          0.54732      0.92007      0.43061  1.0000
  O2          0.79677      0.38538      0.59572  1.0000
  O2          0.08382      0.70798      0.26606  1.0000
  O2          0.13125      0.42740      0.93411  1.0000
  O3          0.55795      0.48938      0.68416  1.0000
  O2          0.01863      0.08608      0.02735  1.0000
  O2          0.42370      0.93813      0.35712  1.0000
  O2          0.10333      0.84952      0.19202  1.0000
  O2          0.65457      0.25907      0.52242  1.0000
  O2          0.26095      0.41169      0.86039  1.0000
  O2          0.65799      0.40478      0.22890  1.0000
  O2          0.24091      0.85005      0.89663  1.0000
  O2          0.10070      0.26253      0.55881  1.0000
  O2          0.01072      0.93244      0.72742  1.0000
  O2          0.42258      0.49298      0.39417  1.0000
  O2          0.57309      0.08546      0.06436  1.0000
  O3          0.93035      0.74299      0.78648  1.0000
  O2          0.78065      0.20175      0.12020  1.0000
  O2          0.30227      0.58159      0.44950  1.0000
  O2          0.74520      0.61400      0.28371  1.0000
  O2          0.89213      0.13899      0.61417  1.0000
  O2          0.37522      0.77300      0.95040  1.0000
  O2          0.89523      0.76021      0.13666  1.0000
  O2          0.37201      0.62121      0.80522  1.0000
  O2          0.74394      0.13973      0.46735  1.0000
  O2          0.77742      0.58452      0.63640  1.0000
  O2          0.30438      0.72925      0.30208  1.0000
  O2          0.93117      0.20834      0.97281  1.0000
  O2          0.92413      0.34158      0.04702  1.0000
  O2          0.16684      0.58722      0.37574  1.0000
  O3          0.93228      0.59337      0.70658  1.0000
  O2          0.74730      0.00261      0.54106  1.0000
  O2          0.51067      0.76461      0.87745  1.0000
  O2          0.75212      0.75576      0.20982  1.0000
  F           0.79333      0.08071      0.04593  1.0000
  F           0.42780      0.71795      0.37613  1.0000
  F           0.76425      0.68355      0.71535  1.0000
  F           0.87816      0.26318      0.54151  1.0000
  F           0.24465      0.63011      0.87923  1.0000
  F           0.88295      0.62514      0.21078  1.0000
