data_cif

_audit_creation_method             'generated by GULP'

_symmetry_space_group_name_H-M     'P 1'
_symmetry_Int_Tables_number        1
_symmetry_cell_setting             triclinic

_cell_length_a                       11.9957
_cell_length_b                       11.9900
_cell_length_c                       29.5296
_cell_angle_alpha                   89.7588
_cell_angle_beta                    89.9506
_cell_angle_gamma                  120.1122

loop_
_atom_site_label
_atom_site_fract_x
_atom_site_fract_y
_atom_site_fract_z
_atom_site_occupancy
  Si          0.34583      0.71244      0.83585  1.0000
  Si          0.25423      0.65741      0.16691  1.0000
  Si          0.30224      0.62054      0.49782  1.0000
  Si          0.92819      0.94878      0.33395  1.0000
  Si          0.00497      0.00338      0.66714  1.0000
  Si          0.96093      0.03775      0.00290  1.0000
  Si          0.01540      0.03832      0.10328  1.0000
  Si          0.95160      0.95014      0.76962  1.0000
  Si          0.92282      0.99971      0.43441  1.0000
  Si          0.25225      0.62466      0.59866  1.0000
  Si          0.30891      0.70928      0.26736  1.0000
  Si          0.34101      0.65758      0.93613  1.0000
  Si          0.16878      0.73401      0.76798  1.0000
  Si          0.21860      0.44812      0.10241  1.0000
  Si          0.51374      0.79317      0.43310  1.0000
  Si          0.10291      0.91364      0.26941  1.0000
  Si          0.04655      0.21595      0.60107  1.0000
  Si          0.75155      0.86599      0.93831  1.0000
  Si          0.05126      0.86392      0.16786  1.0000
  Si          0.75542      0.92013      0.83712  1.0000
  Si          0.09325      0.20992      0.49952  1.0000
  Si          0.21641      0.79388      0.66463  1.0000
  Si          0.51855      0.74433      0.33164  1.0000
  Si          0.16641      0.44683      0.00093  1.0000
  Ge          0.92643      0.71872      0.64879  1.0000
  Si          0.23870      0.23870      0.98764  1.0000
  Si          0.72767      0.02577      0.31814  1.0000
  Si          0.33145      0.93594      0.15305  1.0000
  Si          0.02319      0.41977      0.48473  1.0000
  Si          0.54906      0.63878      0.82089  1.0000
  Si          0.03167      0.63297      0.28247  1.0000
  Si          0.54095      0.93530      0.95187  1.0000
  Si          0.32802      0.42254      0.61293  1.0000
  Si          0.23204      0.01745      0.78476  1.0000
  Si          0.72144      0.72104      0.44807  1.0000
  Si          0.93827      0.23899      0.11695  1.0000
  Ge          0.90431      0.68260      0.74955  1.0000
  Si          0.29635      0.24736      0.08812  1.0000
  Si          0.71537      0.07219      0.41861  1.0000
  Si          0.38110      0.99055      0.25359  1.0000
  Si          0.96975      0.41708      0.58542  1.0000
  Si          0.55163      0.58717      0.92188  1.0000
  Si          0.97344      0.58476      0.18211  1.0000
  Si          0.55159      0.99165      0.85153  1.0000
  Si          0.37344      0.41113      0.51238  1.0000
  Si          0.29270      0.07448      0.68330  1.0000
  Si          0.71902      0.66673      0.34755  1.0000
  Si          0.88760      0.24567      0.01647  1.0000
  Ge          0.61731      0.46098      0.76601  1.0000
  Si          0.51319      0.18444      0.10231  1.0000
  Si          0.77678      0.35151      0.43254  1.0000
  Si          0.66141      0.20735      0.26757  1.0000
  Si          0.74622      0.47283      0.59632  1.0000
  Si          0.48746      0.30820      0.93735  1.0000
  Si          0.75625      0.30453      0.16704  1.0000
  Ge          0.48134      0.20543      0.83486  1.0000
  Si          0.65144      0.46945      0.49646  1.0000
  Si          0.50974      0.35723      0.66384  1.0000
  Si          0.78286      0.45013      0.33211  1.0000
  Si          0.60734      0.18287      0.00176  1.0000
  O1          0.54835      0.31624      0.79390  1.0000
  O2          0.63577      0.26369      0.13424  1.0000
  O2          0.69165      0.39275      0.46208  1.0000
  O2          0.70394      0.33051      0.29901  1.0000
  O2          0.62250      0.38846      0.62776  1.0000
  O2          0.56626      0.26180      0.96850  1.0000
  O2          0.97577      0.91487      0.13600  1.0000
  O2          0.04361      0.08350      0.46791  1.0000
  O2          0.87931      0.99985      0.80388  1.0000
  O2          0.29454      0.74837      0.63131  1.0000
  O2          0.21666      0.57209      0.96829  1.0000
  O2          0.39373      0.66925      0.29914  1.0000
  O2          0.22909      0.66916      0.80020  1.0000
  O2          0.38668      0.74317      0.46480  1.0000
  O2          0.29389      0.57429      0.13426  1.0000
  O2          0.05308      0.98854      0.30203  1.0000
  O2          0.87574      0.91370      0.97102  1.0000
  O2          0.97358      0.09476      0.63555  1.0000
  O1          0.77383      0.54649      0.77615  1.0000
  O2          0.42317      0.24836      0.10791  1.0000
  O2          0.71412      0.19757      0.43852  1.0000
  O2          0.50750      0.11623      0.27363  1.0000
  O2          0.84560      0.41978      0.60570  1.0000
  O2          0.55046      0.46222      0.94388  1.0000
  O2          0.84657      0.45906      0.16232  1.0000
  O3          0.55625      0.11596      0.83024  1.0000
  O2          0.49738      0.40841      0.49163  1.0000
  O2          0.41472      0.20139      0.66270  1.0000
  O2          0.71953      0.54100      0.32766  1.0000
  O2          0.76158      0.24590      0.99656  1.0000
  O2          0.56582      0.19698      0.05181  1.0000
  O2          0.76970      0.39192      0.38167  1.0000
  O3          0.57312      0.41070      0.71071  1.0000
  O2          0.69317      0.44775      0.54542  1.0000
  O3          0.50251      0.27815      0.88630  1.0000
  O2          0.70051      0.25980      0.21699  1.0000
  O3          0.54194      0.54718      0.78101  1.0000
  O2          0.42995      0.03310      0.11474  1.0000
  O2          0.92661      0.42182      0.44674  1.0000
  O2          0.73080      0.12544      0.27998  1.0000
  O3          0.82447      0.62388      0.60499  1.0000
  O2          0.33549      0.23681      0.94949  1.0000
  O2          0.83977      0.23706      0.15510  1.0000
  O3          0.31743      0.10418      0.82549  1.0000
  O2          0.72087      0.62251      0.48623  1.0000
  O2          0.42559      0.42404      0.65092  1.0000
  O2          0.93458      0.53367      0.32061  1.0000
  O2          0.53839      0.03119      0.99020  1.0000
  O2          0.95964      0.98068      0.05321  1.0000
  O2          0.98304      0.00303      0.38451  1.0000
  O2          0.94960      0.99966      0.71793  1.0000
  O2          0.30636      0.67960      0.54793  1.0000
  O2          0.28422      0.65876      0.88603  1.0000
  O2          0.30979      0.65461      0.21701  1.0000
  O3          0.01776      0.64358      0.77187  1.0000
  O2          0.30622      0.37982      0.10597  1.0000
  O2          0.58237      0.94926      0.43651  1.0000
  O2          0.25921      0.00057      0.27235  1.0000
  O2          0.96038      0.28557      0.60470  1.0000
  O2          0.68141      0.70981      0.94132  1.0000
  O2          0.96362      0.70778      0.16435  1.0000
  O2          0.68661      0.00621      0.83473  1.0000
  O2          0.24921      0.27790      0.49589  1.0000
  O2          0.29874      0.95080      0.66481  1.0000
  O2          0.58744      0.65722      0.32874  1.0000
  O2          0.01025      0.37811      0.99790  1.0000
  O2          0.41438      0.63741      0.81573  1.0000
  O2          0.32986      0.80158      0.14508  1.0000
  O2          0.15808      0.55276      0.47656  1.0000
  O2          0.86143      0.02499      0.31146  1.0000
  O3          0.93085      0.86599      0.64333  1.0000
  O2          0.10418      0.10509      0.98039  1.0000
  O2          0.93969      0.10605      0.12512  1.0000
  O2          0.09889      0.01895      0.78750  1.0000
  O2          0.85434      0.85559      0.45644  1.0000
  O2          0.32649      0.55546      0.62061  1.0000
  O2          0.16571      0.63345      0.28989  1.0000
  O2          0.40886      0.79921      0.95959  1.0000
  O2          0.42498      0.86826      0.83089  1.0000
  O2          0.09834      0.58408      0.16211  1.0000
  O2          0.37369      0.53666      0.49241  1.0000
  O2          0.84614      0.79297      0.32865  1.0000
  O2          0.15995      0.06406      0.66716  1.0000
  O2          0.88720      0.11964      0.99741  1.0000
  O2          0.17134      0.12100      0.10812  1.0000
  O3          0.87569      0.79814      0.77606  1.0000
  O2          0.84087      0.07347      0.43885  1.0000
  O2          0.09611      0.54411      0.60411  1.0000
  O2          0.38261      0.86507      0.27273  1.0000
  O2          0.42231      0.58306      0.93958  1.0000
  O1          0.84235      0.62971      0.69463  1.0000
  O2          0.31342      0.24440      0.03395  1.0000
  O2          0.72019      0.09340      0.36445  1.0000
  O2          0.40088      0.00939      0.19941  1.0000
  O2          0.95058      0.41676      0.53127  1.0000
  O2          0.55629      0.56927      0.86763  1.0000
  O2          0.95656      0.56391      0.23628  1.0000
  O2          0.54268      0.00985      0.90569  1.0000
  O2          0.39680      0.41769      0.56638  1.0000
  O2          0.30697      0.08456      0.73769  1.0000
  O2          0.71874      0.64796      0.40176  1.0000
  O2          0.86837      0.24350      0.07067  1.0000
  O2          0.21101      0.87486      0.78914  1.0000
  O2          0.07741      0.36447      0.12563  1.0000
  O2          0.59603      0.73484      0.45663  1.0000
  O2          0.04555      0.77172      0.29205  1.0000
  O2          0.18955      0.29628      0.62266  1.0000
  O2          0.66811      0.92457      0.96060  1.0000
  O2          0.19229      0.92204      0.14454  1.0000
  O2          0.67259      0.78042      0.81370  1.0000
  O2          0.03617      0.29384      0.47640  1.0000
  O3          0.07965      0.74057      0.64060  1.0000
  O2          0.60347      0.88614      0.30883  1.0000
  O2          0.22396      0.36320      0.97820  1.0000
  O2          0.21913      0.50050      0.05150  1.0000
  O2          0.46330      0.74215      0.38216  1.0000
  O2          0.21708      0.74108      0.71543  1.0000
  O2          0.04116      0.15844      0.55071  1.0000
  O2          0.80826      0.91903      0.88777  1.0000
  O2          0.05068      0.91521      0.21874  1.0000
  F           0.08882      0.23933      0.05238  1.0000
  F           0.72439      0.87309      0.38356  1.0000
  F           0.04510      0.82802      0.71857  1.0000
  F           0.17418      0.41948      0.54966  1.0000
  F           0.54508      0.79112      0.88738  1.0000
  F           0.18071      0.78423      0.21802  1.0000
