data_cif

_audit_creation_method             'generated by GULP'

_symmetry_space_group_name_H-M     'P 1'
_symmetry_Int_Tables_number        1
_symmetry_cell_setting             triclinic

_cell_length_a                       12.0219
_cell_length_b                       12.0018
_cell_length_c                       29.5642
_cell_angle_alpha                   89.8100
_cell_angle_beta                    89.6736
_cell_angle_gamma                  120.3208

loop_
_atom_site_label
_atom_site_fract_x
_atom_site_fract_y
_atom_site_fract_z
_atom_site_occupancy
  Si          0.34583      0.71244      0.83585  1.0000
  Si          0.25508      0.65828      0.16718  1.0000
  Si          0.30020      0.61987      0.49785  1.0000
  Si          0.92580      0.94993      0.33267  1.0000
  Si          0.00495      0.99883      0.66606  1.0000
  Si          0.96016      0.03946      0.00376  1.0000
  Si          0.01708      0.04000      0.10343  1.0000
  Si          0.95079      0.95054      0.76882  1.0000
  Si          0.92159      0.00166      0.43296  1.0000
  Si          0.24443      0.61907      0.59841  1.0000
  Si          0.30728      0.71005      0.26763  1.0000
  Si          0.34008      0.66181      0.93642  1.0000
  Si          0.16895      0.73454      0.76872  1.0000
  Si          0.22100      0.44965      0.10279  1.0000
  Si          0.51224      0.79387      0.43306  1.0000
  Si          0.10178      0.91441      0.26896  1.0000
  Si          0.04117      0.20854      0.59944  1.0000
  Si          0.75337      0.87409      0.93775  1.0000
  Si          0.05221      0.86477      0.16759  1.0000
  Si          0.75547      0.92243      0.83647  1.0000
  Si          0.09311      0.20993      0.49795  1.0000
  Si          0.21144      0.79109      0.66495  1.0000
  Si          0.51614      0.74471      0.33166  1.0000
  Si          0.16823      0.45054      0.00166  1.0000
  Si          0.92489      0.71569      0.64859  1.0000
  Si          0.23736      0.24075      0.98724  1.0000
  Si          0.72567      0.02656      0.31762  1.0000
  Si          0.33234      0.93698      0.15323  1.0000
  Si          0.02175      0.41829      0.48375  1.0000
  Si          0.54921      0.63844      0.82204  1.0000
  Si          0.03001      0.63381      0.28238  1.0000
  Si          0.54099      0.94016      0.95068  1.0000
  Si          0.32106      0.41821      0.61224  1.0000
  Si          0.23082      0.01721      0.78411  1.0000
  Si          0.72004      0.72284      0.44704  1.0000
  Si          0.94056      0.24053      0.11846  1.0000
  Ge          0.90968      0.68866      0.74855  1.0000
  Si          0.29871      0.24960      0.08719  1.0000
  Si          0.71416      0.07347      0.41805  1.0000
  Si          0.37991      0.99136      0.25366  1.0000
  Si          0.96356      0.40900      0.58434  1.0000
  Si          0.55233      0.59475      0.92336  1.0000
  Si          0.97422      0.58567      0.18208  1.0000
  Si          0.55092      0.99302      0.85025  1.0000
  Si          0.37263      0.41152      0.51199  1.0000
  Si          0.29155      0.07312      0.68227  1.0000
  Si          0.71633      0.66737      0.34673  1.0000
  Si          0.89006      0.24827      0.01831  1.0000
  Ge          0.61947      0.46423      0.76401  1.0000
  Si          0.51434      0.18604      0.10232  1.0000
  Si          0.77586      0.35296      0.43262  1.0000
  Si          0.65988      0.20844      0.26765  1.0000
  Si          0.74738      0.47256      0.59662  1.0000
  Ge          0.48979      0.31299      0.93622  1.0000
  Si          0.75664      0.30537      0.16725  1.0000
  Ge          0.48435      0.20863      0.83112  1.0000
  Si          0.65268      0.47340      0.49669  1.0000
  Si          0.50653      0.35848      0.66297  1.0000
  Si          0.78048      0.45119      0.33228  1.0000
  Si          0.61105      0.18598      0.00199  1.0000
  O1          0.55378      0.31463      0.78849  1.0000
  O2          0.63746      0.26442      0.13401  1.0000
  O2          0.69313      0.39404      0.46367  1.0000
  O2          0.70226      0.33035      0.29969  1.0000
  O2          0.62085      0.39180      0.62708  1.0000
  O3          0.57942      0.26798      0.96798  1.0000
  O2          0.97763      0.91611      0.13588  1.0000
  O2          0.04366      0.08487      0.46579  1.0000
  O2          0.87837      0.00159      0.80244  1.0000
  O2          0.28457      0.74274      0.63093  1.0000
  O2          0.21644      0.57606      0.96916  1.0000
  O2          0.39101      0.66974      0.29953  1.0000
  O2          0.22952      0.66889      0.80015  1.0000
  O2          0.38568      0.74371      0.46525  1.0000
  O2          0.29585      0.57568      0.13477  1.0000
  O2          0.05114      0.98971      0.30093  1.0000
  O2          0.87543      0.91835      0.97085  1.0000
  O2          0.96913      0.08326      0.63280  1.0000
  O1          0.77644      0.54944      0.77280  1.0000
  O2          0.42465      0.25023      0.10732  1.0000
  O2          0.71247      0.19861      0.43795  1.0000
  O2          0.50591      0.11719      0.27378  1.0000
  O2          0.83637      0.40788      0.60377  1.0000
  O3          0.55368      0.47514      0.94668  1.0000
  O2          0.84769      0.45995      0.16218  1.0000
  O3          0.55566      0.11566      0.82788  1.0000
  O2          0.49836      0.41045      0.49220  1.0000
  O2          0.41568      0.20143      0.66269  1.0000
  O2          0.71700      0.54147      0.32711  1.0000
  O2          0.76510      0.24800      0.99858  1.0000
  O2          0.56499      0.19819      0.05161  1.0000
  O2          0.76681      0.39532      0.38228  1.0000
  O3          0.57036      0.42124      0.70867  1.0000
  O2          0.69738      0.45960      0.54597  1.0000
  O1          0.50910      0.28742      0.88096  1.0000
  O2          0.69907      0.26215      0.21716  1.0000
  O3          0.54194      0.54458      0.78306  1.0000
  O2          0.43125      0.03467      0.11500  1.0000
  O2          0.92622      0.42163      0.44586  1.0000
  O2          0.72865      0.12609      0.27954  1.0000
  O2          0.83459      0.62525      0.60743  1.0000
  O3          0.32718      0.23369      0.94829  1.0000
  O2          0.84106      0.23814      0.15646  1.0000
  O3          0.31906      0.10867      0.82338  1.0000
  O2          0.72096      0.62533      0.48506  1.0000
  O2          0.41756      0.41903      0.65000  1.0000
  O2          0.93222      0.53466      0.32060  1.0000
  O2          0.53844      0.03465      0.98937  1.0000
  O2          0.95799      0.98139      0.05388  1.0000
  O2          0.98095      0.00489      0.38294  1.0000
  O2          0.95056      0.99875      0.71658  1.0000
  O2          0.30151      0.67655      0.54813  1.0000
  O2          0.28350      0.66025      0.88617  1.0000
  O2          0.30914      0.65562      0.21738  1.0000
  O3          0.01783      0.64471      0.77273  1.0000
  O2          0.30836      0.38142      0.10575  1.0000
  O2          0.58122      0.95015      0.43626  1.0000
  O2          0.25798      0.00145      0.27220  1.0000
  O2          0.95414      0.27708      0.60342  1.0000
  O2          0.68269      0.71869      0.94129  1.0000
  O2          0.96468      0.70844      0.16412  1.0000
  O2          0.68599      0.00728      0.83367  1.0000
  O2          0.24922      0.27842      0.49476  1.0000
  O2          0.29507      0.94820      0.66338  1.0000
  O2          0.58464      0.65755      0.32839  1.0000
  O2          0.01223      0.38124      0.99956  1.0000
  O2          0.41481      0.63725      0.81640  1.0000
  O2          0.33104      0.80282      0.14542  1.0000
  O2          0.15669      0.55229      0.47637  1.0000
  O2          0.85908      0.02582      0.31035  1.0000
  O2          0.93314      0.85554      0.64431  1.0000
  O2          0.10295      0.10645      0.98138  1.0000
  O2          0.94292      0.10805      0.12623  1.0000
  O2          0.09749      0.01833      0.78740  1.0000
  O2          0.85294      0.85759      0.45506  1.0000
  O2          0.31817      0.55027      0.62055  1.0000
  O2          0.16359      0.63423      0.29002  1.0000
  O2          0.40822      0.80450      0.95899  1.0000
  O2          0.42482      0.86811      0.83026  1.0000
  O2          0.09932      0.58505      0.16231  1.0000
  O2          0.37253      0.53706      0.49237  1.0000
  O2          0.84322      0.79391      0.32748  1.0000
  O2          0.16012      0.06450      0.66568  1.0000
  O2          0.88777      0.12192      0.99901  1.0000
  O2          0.17336      0.12183      0.10679  1.0000
  O3          0.87224      0.79849      0.77531  1.0000
  O2          0.83988      0.07533      0.43789  1.0000
  O2          0.08827      0.53680      0.60349  1.0000
  O2          0.38099      0.86596      0.27293  1.0000
  O2          0.42182      0.58881      0.94073  1.0000
  O3          0.84923      0.63700      0.69242  1.0000
  O2          0.31712      0.24957      0.03283  1.0000
  O2          0.71901      0.09458      0.36394  1.0000
  O2          0.40099      0.01049      0.19955  1.0000
  O2          0.94674      0.41074      0.53027  1.0000
  O2          0.55439      0.57050      0.86927  1.0000
  O2          0.95588      0.56454      0.23621  1.0000
  O2          0.54152      0.01362      0.90432  1.0000
  O2          0.39225      0.41578      0.56598  1.0000
  O2          0.30427      0.08181      0.73647  1.0000
  O2          0.71638      0.64908      0.40086  1.0000
  O2          0.87103      0.24554      0.07248  1.0000
  O2          0.21311      0.87604      0.79021  1.0000
  O2          0.08021      0.36597      0.12665  1.0000
  O2          0.59454      0.73573      0.45619  1.0000
  O2          0.04370      0.77249      0.29183  1.0000
  O2          0.18279      0.29041      0.62160  1.0000
  O2          0.66983      0.93320      0.95924  1.0000
  O2          0.19364      0.92299      0.14448  1.0000
  O2          0.67297      0.78040      0.81464  1.0000
  O2          0.03687      0.29409      0.47486  1.0000
  O2          0.06918      0.73636      0.64399  1.0000
  O2          0.60107      0.88668      0.30872  1.0000
  O2          0.22412      0.36638      0.97831  1.0000
  O2          0.22189      0.50324      0.05212  1.0000
  O2          0.46129      0.74236      0.38232  1.0000
  O2          0.21600      0.74169      0.71574  1.0000
  O2          0.03861      0.15528      0.54873  1.0000
  O2          0.81025      0.92586      0.88703  1.0000
  O2          0.05076      0.91593      0.21831  1.0000
  F           0.09150      0.24175      0.05298  1.0000
  F           0.72234      0.87415      0.38288  1.0000
  F           0.05079      0.83361      0.72195  1.0000
  F           0.17051      0.41639      0.54905  1.0000
  F           0.54477      0.79471      0.88753  1.0000
  F           0.18024      0.78526      0.21814  1.0000
