data_cif

_audit_creation_method             'generated by GULP'

_symmetry_space_group_name_H-M     'P 1'
_symmetry_Int_Tables_number        1
_symmetry_cell_setting             triclinic

_cell_length_a                       12.0057
_cell_length_b                       11.9685
_cell_length_c                       29.6083
_cell_angle_alpha                   89.4811
_cell_angle_beta                    89.8783
_cell_angle_gamma                  120.2341

loop_
_atom_site_label
_atom_site_fract_x
_atom_site_fract_y
_atom_site_fract_z
_atom_site_occupancy
  Si          0.34583      0.71244      0.83585  1.0000
  Si          0.24476      0.65109      0.16886  1.0000
  Si          0.29185      0.61118      0.49946  1.0000
  Si          0.91679      0.94116      0.33411  1.0000
  Si          0.99023      0.98449      0.66693  1.0000
  Si          0.95355      0.03614      0.00465  1.0000
  Si          0.00692      0.03475      0.10469  1.0000
  Ge          0.93656      0.93229      0.77048  1.0000
  Si          0.91362      0.99203      0.43419  1.0000
  Si          0.23471      0.60725      0.59964  1.0000
  Si          0.29755      0.70173      0.26915  1.0000
  Si          0.33675      0.65570      0.93609  1.0000
  Si          0.15926      0.72144      0.76979  1.0000
  Si          0.21058      0.44456      0.10364  1.0000
  Si          0.50395      0.78481      0.43478  1.0000
  Si          0.09245      0.90698      0.27023  1.0000
  Si          0.03370      0.19728      0.59972  1.0000
  Si          0.74487      0.86747      0.93981  1.0000
  Si          0.04187      0.85886      0.16905  1.0000
  Si          0.75404      0.92987      0.83963  1.0000
  Si          0.08579      0.20063      0.49849  1.0000
  Si          0.19990      0.77740      0.66621  1.0000
  Si          0.50609      0.73590      0.33355  1.0000
  Si          0.16045      0.44632      0.00237  1.0000
  Si          0.91237      0.70168      0.65059  1.0000
  Si          0.23185      0.23734      0.98942  1.0000
  Si          0.71622      0.01808      0.31945  1.0000
  Si          0.32193      0.93037      0.15487  1.0000
  Si          0.01381      0.40963      0.48486  1.0000
  Si          0.55520      0.64756      0.81950  1.0000
  Si          0.02010      0.62552      0.28402  1.0000
  Si          0.53347      0.93604      0.95185  1.0000
  Si          0.31343      0.40697      0.61363  1.0000
  Si          0.22180      0.00439      0.78598  1.0000
  Si          0.71192      0.71297      0.44891  1.0000
  Si          0.92949      0.23532      0.11835  1.0000
  Ge          0.89465      0.66644      0.75101  1.0000
  Si          0.28861      0.24375      0.08956  1.0000
  Si          0.70615      0.06468      0.41966  1.0000
  Si          0.37057      0.98402      0.25502  1.0000
  Si          0.95406      0.39736      0.58523  1.0000
  Si          0.54918      0.58828      0.92033  1.0000
  Si          0.96409      0.57915      0.18388  1.0000
  Si          0.54611      0.99490      0.85155  1.0000
  Si          0.36459      0.40224      0.51339  1.0000
  Si          0.27862      0.05875      0.68418  1.0000
  Si          0.70688      0.65858      0.34869  1.0000
  Si          0.88082      0.24473      0.01806  1.0000
  Ge          0.60490      0.45402      0.76632  1.0000
  Si          0.50491      0.17967      0.10414  1.0000
  Si          0.76747      0.34424      0.43434  1.0000
  Si          0.65085      0.20079      0.26919  1.0000
  Si          0.73607      0.45850      0.59894  1.0000
  Si          0.48132      0.30598      0.93924  1.0000
  Si          0.74682      0.29914      0.16879  1.0000
  Ge          0.46707      0.19988      0.83721  1.0000
  Si          0.64380      0.46290      0.49884  1.0000
  Si          0.49425      0.34197      0.66537  1.0000
  Si          0.77083      0.44239      0.33401  1.0000
  Si          0.60059      0.18203      0.00367  1.0000
  O1          0.51619      0.32550      0.80189  1.0000
  O2          0.62586      0.25868      0.13655  1.0000
  O2          0.68584      0.38454      0.46616  1.0000
  O2          0.69272      0.32200      0.30139  1.0000
  O2          0.61330      0.37932      0.63138  1.0000
  O2          0.56080      0.26773      0.97350  1.0000
  O2          0.96672      0.91011      0.13723  1.0000
  O2          0.03684      0.07579      0.46644  1.0000
  O3          0.87633      0.00299      0.80687  1.0000
  O2          0.27374      0.73018      0.63228  1.0000
  O2          0.21299      0.57096      0.96887  1.0000
  O2          0.38114      0.66112      0.30132  1.0000
  O2          0.22662      0.66205      0.80100  1.0000
  O2          0.37774      0.73563      0.46700  1.0000
  O2          0.28517      0.56945      0.13598  1.0000
  O2          0.04178      0.98187      0.30224  1.0000
  O2          0.86683      0.91211      0.97320  1.0000
  O2          0.95991      0.06988      0.63177  1.0000
  O1          0.76232      0.51831      0.77194  1.0000
  O2          0.41534      0.24430      0.10899  1.0000
  O2          0.70468      0.18969      0.43975  1.0000
  O2          0.49670      0.10983      0.27499  1.0000
  O2          0.82582      0.39382      0.60479  1.0000
  O2          0.54696      0.46148      0.94119  1.0000
  O2          0.83753      0.45401      0.16384  1.0000
  O3          0.55017      0.11879      0.82912  1.0000
  O2          0.48995      0.40124      0.49332  1.0000
  O2          0.39989      0.18557      0.66228  1.0000
  O2          0.70708      0.53275      0.32880  1.0000
  O2          0.75484      0.24436      0.99806  1.0000
  O2          0.56024      0.19028      0.05436  1.0000
  O2          0.75645      0.38635      0.38410  1.0000
  O3          0.54560      0.38487      0.71415  1.0000
  O2          0.68264      0.44533      0.54877  1.0000
  O3          0.49270      0.25806      0.89108  1.0000
  O2          0.69201      0.25520      0.21890  1.0000
  O3          0.55641      0.56578      0.77776  1.0000
  O2          0.42076      0.02788      0.11660  1.0000
  O2          0.91844      0.41364      0.44691  1.0000
  O2          0.71922      0.11780      0.28125  1.0000
  O2          0.82310      0.61113      0.60940  1.0000
  O2          0.32935      0.23805      0.95134  1.0000
  O2          0.83018      0.23179      0.15645  1.0000
  O3          0.30725      0.08898      0.82714  1.0000
  O2          0.71349      0.61547      0.48718  1.0000
  O2          0.41129      0.40939      0.65157  1.0000
  O2          0.92267      0.52601      0.32232  1.0000
  O2          0.52948      0.03149      0.98985  1.0000
  O2          0.95191      0.97788      0.05476  1.0000
  O2          0.97246      0.99544      0.38425  1.0000
  O3          0.92690      0.98033      0.71480  1.0000
  O2          0.29296      0.66695      0.54971  1.0000
  O2          0.28269      0.65810      0.88585  1.0000
  O2          0.29919      0.64745      0.21898  1.0000
  O3          0.00818      0.62677      0.77292  1.0000
  O2          0.29852      0.37660      0.10707  1.0000
  O2          0.57320      0.94130      0.43789  1.0000
  O2          0.24865      0.99408      0.27357  1.0000
  O2          0.94642      0.26575      0.60414  1.0000
  O2          0.67571      0.71064      0.94160  1.0000
  O2          0.95445      0.70231      0.16584  1.0000
  O2          0.68480      0.01557      0.83663  1.0000
  O2          0.24194      0.26942      0.49578  1.0000
  O2          0.28048      0.93438      0.66388  1.0000
  O2          0.57486      0.64871      0.33048  1.0000
  O2          0.00424      0.37796      0.99949  1.0000
  O2          0.41787      0.64140      0.81542  1.0000
  O2          0.32070      0.79606      0.14717  1.0000
  O2          0.14840      0.54442      0.47789  1.0000
  O2          0.84952      0.01726      0.31197  1.0000
  O2          0.92305      0.84191      0.64435  1.0000
  O2          0.09693      0.10367      0.98202  1.0000
  O2          0.93063      0.10183      0.12639  1.0000
  O3          0.09547      0.01435      0.78862  1.0000
  O2          0.84513      0.84780      0.45659  1.0000
  O2          0.30869      0.53826      0.62202  1.0000
  O2          0.15385      0.62571      0.29148  1.0000
  O2          0.40342      0.79739      0.95939  1.0000
  O2          0.42273      0.86896      0.83034  1.0000
  O2          0.08894      0.57795      0.16422  1.0000
  O2          0.36451      0.52846      0.49395  1.0000
  O2          0.83381      0.78493      0.32919  1.0000
  O2          0.14557      0.05126      0.67060  1.0000
  O2          0.88064      0.11880      0.99918  1.0000
  O2          0.16288      0.11734      0.10976  1.0000
  O1          0.85563      0.76961      0.77993  1.0000
  O2          0.83218      0.06621      0.43932  1.0000
  O2          0.07842      0.52547      0.60437  1.0000
  O2          0.37160      0.85793      0.27425  1.0000
  O2          0.41837      0.58145      0.93788  1.0000
  O3          0.83530      0.62345      0.69436  1.0000
  O2          0.30560      0.24100      0.03556  1.0000
  O2          0.71045      0.08651      0.36563  1.0000
  O2          0.39111      0.00385      0.20100  1.0000
  O2          0.93768      0.40024      0.53120  1.0000
  O2          0.56069      0.57599      0.86615  1.0000
  O2          0.94570      0.55703      0.23792  1.0000
  O2          0.53313      0.00960      0.90557  1.0000
  O2          0.38463      0.40567      0.56737  1.0000
  O2          0.29829      0.06663      0.73821  1.0000
  O2          0.70781      0.63951      0.40276  1.0000
  O2          0.86106      0.24169      0.07213  1.0000
  O2          0.19701      0.85981      0.79193  1.0000
  O2          0.06905      0.36068      0.12689  1.0000
  O2          0.58635      0.72606      0.45791  1.0000
  O2          0.03418      0.76466      0.29324  1.0000
  O2          0.17524      0.27810      0.62235  1.0000
  O2          0.66066      0.92601      0.96134  1.0000
  O2          0.18328      0.91693      0.14598  1.0000
  O2          0.67594      0.79226      0.81376  1.0000
  O2          0.02999      0.28602      0.47558  1.0000
  O2          0.05557      0.71928      0.64707  1.0000
  O2          0.59106      0.87841      0.31072  1.0000
  O2          0.21805      0.36263      0.98017  1.0000
  O2          0.21224      0.49927      0.05292  1.0000
  O2          0.45193      0.73336      0.38421  1.0000
  O2          0.20690      0.73073      0.71712  1.0000
  O2          0.03130      0.14540      0.54904  1.0000
  O2          0.80521      0.92547      0.89012  1.0000
  O2          0.04106      0.90966      0.21972  1.0000
  F           0.08166      0.23707      0.05399  1.0000
  F           0.71356      0.86528      0.38462  1.0000
  F           0.03348      0.82121      0.72494  1.0000
  F           0.16259      0.40696      0.55020  1.0000
  F           0.54517      0.79559      0.88706  1.0000
  F           0.17050      0.77832      0.21967  1.0000
