data_cif

_audit_creation_method             'generated by GULP'

_symmetry_space_group_name_H-M     'P 1'
_symmetry_Int_Tables_number        1
_symmetry_cell_setting             triclinic

_cell_length_a                       11.9415
_cell_length_b                       12.0213
_cell_length_c                       29.4745
_cell_angle_alpha                   90.0257
_cell_angle_beta                    90.3361
_cell_angle_gamma                  120.0859

loop_
_atom_site_label
_atom_site_fract_x
_atom_site_fract_y
_atom_site_fract_z
_atom_site_occupancy
  Ge          0.31227      0.37570      0.44478  1.0000
  Si          0.22442      0.31443      0.77881  1.0000
  Si          0.28448      0.29186      0.10990  1.0000
  Si          0.89677      0.61242      0.94112  1.0000
  Si          0.98538      0.66816      0.27243  1.0000
  Si          0.93272      0.70638      0.60889  1.0000
  Si          0.98143      0.69116      0.70917  1.0000
  Si          0.93180      0.61969      0.37284  1.0000
  Si          0.90488      0.67111      0.04169  1.0000
  Si          0.22933      0.28813      0.21044  1.0000
  Si          0.27691      0.37381      0.87921  1.0000
  Ge          0.30123      0.31222      0.54525  1.0000
  Si          0.13638      0.41302      0.37672  1.0000
  Si          0.18700      0.10099      0.71660  1.0000
  Si          0.49424      0.46590      0.04562  1.0000
  Si          0.06668      0.57379      0.87523  1.0000
  Si          0.02483      0.87872      0.20802  1.0000
  Si          0.72876      0.52953      0.54066  1.0000
  Si          0.01726      0.51654      0.77349  1.0000
  Si          0.72245      0.58425      0.43729  1.0000
  Si          0.07829      0.88262      0.10636  1.0000
  Si          0.18865      0.46056      0.27446  1.0000
  Si          0.48839      0.41132      0.94404  1.0000
  Si          0.13478      0.11146      0.61539  1.0000
  Si          0.90741      0.39094      0.25906  1.0000
  Si          0.21234      0.90943      0.59623  1.0000
  Si          0.69544      0.69041      0.92815  1.0000
  Si          0.29950      0.58924      0.76144  1.0000
  Si          0.00630      0.09100      0.09334  1.0000
  Ge          0.50494      0.29194      0.42139  1.0000
  Si          0.99674      0.29517      0.89102  1.0000
  Si          0.51091      0.59686      0.55731  1.0000
  Si          0.30677      0.08722      0.22403  1.0000
  Si          0.21058      0.69547      0.38816  1.0000
  Si          0.70453      0.39429      0.05803  1.0000
  Si          0.90481      0.89023      0.72807  1.0000
  Si          0.85671      0.33870      0.35961  1.0000
  Si          0.26434      0.90228      0.69716  1.0000
  Si          0.69469      0.74347      0.02890  1.0000
  Si          0.34727      0.65219      0.86201  1.0000
  Si          0.94789      0.07999      0.19390  1.0000
  Ge          0.52358      0.24353      0.52644  1.0000
  Si          0.94126      0.23989      0.79030  1.0000
  Si          0.51915      0.66316      0.45542  1.0000
  Si          0.35721      0.08413      0.12317  1.0000
  Si          0.26649      0.73936      0.28733  1.0000
  Si          0.68932      0.33255      0.95739  1.0000
  Si          0.85579      0.90776      0.62786  1.0000
  Si          0.57861      0.11318      0.37259  1.0000
  Si          0.47948      0.83560      0.71087  1.0000
  Si          0.75712      0.02304      0.04260  1.0000
  Si          0.62736      0.87044      0.87717  1.0000
  Si          0.73000      0.14188      0.20804  1.0000
  Si          0.45809      0.96528      0.54401  1.0000
  Si          0.72422      0.95866      0.77647  1.0000
  Si          0.45738      0.87943      0.44129  1.0000
  Si          0.63758      0.14627      0.10733  1.0000
  Si          0.48711      0.01553      0.27281  1.0000
  Si          0.74981      0.11424      0.94199  1.0000
  Si          0.57627      0.84066      0.61025  1.0000
  O2          0.53924      0.00194      0.40981  1.0000
  O2          0.60456      0.91506      0.74231  1.0000
  O2          0.67701      0.06652      0.07400  1.0000
  O2          0.66936      0.99329      0.90900  1.0000
  O2          0.60614      0.05917      0.23906  1.0000
  O2          0.52608      0.90598      0.57473  1.0000
  O2          0.94203      0.56473      0.73976  1.0000
  O2          0.03060      0.75833      0.07341  1.0000
  O2          0.84940      0.66159      0.40568  1.0000
  O2          0.26613      0.40990      0.24339  1.0000
  O3          0.18133      0.23716      0.58602  1.0000
  O2          0.35964      0.33500      0.91266  1.0000
  O3          0.17759      0.33789      0.40952  1.0000
  O2          0.37000      0.41705      0.07843  1.0000
  O2          0.26419      0.22549      0.74930  1.0000
  O2          0.01686      0.65018      0.90697  1.0000
  O2          0.85481      0.58928      0.57311  1.0000
  O2          0.94710      0.75216      0.23933  1.0000
  O2          0.73162      0.21329      0.38037  1.0000
  O2          0.38919      0.89902      0.71742  1.0000
  O2          0.69554      0.86975      0.04888  1.0000
  O2          0.47252      0.78028      0.88199  1.0000
  O2          0.82150      0.07956      0.21398  1.0000
  O3          0.53609      0.11637      0.55022  1.0000
  O2          0.81595      0.11203      0.77014  1.0000
  O2          0.52845      0.79558      0.43835  1.0000
  O2          0.48306      0.08457      0.10251  1.0000
  O2          0.39360      0.86251      0.26631  1.0000
  O2          0.68546      0.20429      0.93774  1.0000
  O2          0.73203      0.91430      0.60813  1.0000
  O2          0.52577      0.84843      0.65948  1.0000
  O2          0.74116      0.05923      0.99180  1.0000
  O2          0.54624      0.04823      0.32313  1.0000
  O2          0.67963      0.13049      0.15714  1.0000
  O2          0.45863      0.92526      0.49225  1.0000
  O2          0.66800      0.92215      0.82658  1.0000
  O3          0.50541      0.19106      0.37883  1.0000
  O2          0.39823      0.68458      0.72301  1.0000
  O2          0.90947      0.09371      0.05480  1.0000
  O2          0.69575      0.78802      0.88992  1.0000
  O2          0.80958      0.29256      0.22074  1.0000
  O2          0.30772      0.91140      0.55708  1.0000
  O2          0.80656      0.88793      0.76656  1.0000
  O2          0.30751      0.79514      0.42646  1.0000
  O2          0.70804      0.29800      0.09596  1.0000
  O2          0.40459      0.08633      0.26261  1.0000
  O2          0.90087      0.19835      0.92940  1.0000
  O2          0.52228      0.69207      0.59806  1.0000
  O2          0.92702      0.64034      0.65790  1.0000
  O2          0.95888      0.67032      0.99098  1.0000
  O2          0.92848      0.67325      0.32228  1.0000
  O2          0.28579      0.34723      0.16048  1.0000
  O1          0.22716      0.30027      0.49434  1.0000
  O2          0.28057      0.31716      0.82940  1.0000
  O2          0.97868      0.33008      0.37820  1.0000
  O2          0.27381      0.03139      0.71820  1.0000
  O2          0.56338      0.62180      0.04810  1.0000
  O2          0.22338      0.66205      0.87856  1.0000
  O2          0.93720      0.94719      0.21131  1.0000
  O3          0.67076      0.37803      0.54052  1.0000
  O2          0.93032      0.36044      0.77066  1.0000
  O2          0.64749      0.66539      0.43606  1.0000
  O2          0.23511      0.95246      0.10392  1.0000
  O2          0.27553      0.61613      0.27017  1.0000
  O2          0.55576      0.32302      0.93987  1.0000
  O2          0.97794      0.04073      0.61126  1.0000
  O1          0.36431      0.28996      0.41174  1.0000
  O2          0.29968      0.45528      0.75492  1.0000
  O2          0.14116      0.22481      0.08671  1.0000
  O2          0.82795      0.68783      0.91949  1.0000
  O2          0.90901      0.52485      0.25004  1.0000
  O2          0.07670      0.77751      0.58731  1.0000
  O2          0.90546      0.75634      0.73303  1.0000
  O2          0.07589      0.69561      0.39527  1.0000
  O2          0.83912      0.52892      0.06440  1.0000
  O2          0.30530      0.21989      0.23236  1.0000
  O2          0.13202      0.29840      0.90011  1.0000
  O3          0.37451      0.47234      0.56377  1.0000
  O3          0.39024      0.54477      0.43702  1.0000
  O2          0.06799      0.23895      0.77210  1.0000
  O2          0.35937      0.21115      0.10426  1.0000
  O2          0.81476      0.45651      0.93677  1.0000
  O2          0.14187      0.74191      0.26721  1.0000
  O2          0.85232      0.78263      0.60561  1.0000
  O2          0.13782      0.77346      0.71427  1.0000
  O2          0.85421      0.46405      0.37858  1.0000
  O2          0.82265      0.74457      0.04726  1.0000
  O2          0.07293      0.20504      0.21456  1.0000
  O2          0.34879      0.52942      0.88331  1.0000
  O1          0.39558      0.24188      0.55198  1.0000
  O2          0.83475      0.31923      0.30530  1.0000
  O2          0.28498      0.90951      0.64285  1.0000
  O2          0.69329      0.76105      0.97458  1.0000
  O2          0.36888      0.66609      0.80774  1.0000
  O2          0.93078      0.08428      0.13958  1.0000
  O1          0.51067      0.21341      0.46969  1.0000
  O2          0.92286      0.22311      0.84456  1.0000
  O2          0.52370      0.67151      0.51045  1.0000
  O2          0.37720      0.08489      0.17750  1.0000
  O2          0.28495      0.76301      0.34157  1.0000
  O2          0.69577      0.31805      0.01163  1.0000
  O2          0.83438      0.89849      0.68210  1.0000
  O2          0.19518      0.55737      0.39795  1.0000
  O2          0.04507      0.01321      0.73865  1.0000
  O2          0.58063      0.41017      0.06793  1.0000
  O2          0.00945      0.43380      0.89862  1.0000
  O2          0.16638      0.96225      0.23167  1.0000
  O2          0.62370      0.56092      0.56227  1.0000
  O2          0.15961      0.57405      0.75123  1.0000
  O3          0.63774      0.44506      0.41557  1.0000
  O2          0.02056      0.96657      0.08359  1.0000
  O2          0.04653      0.40268      0.25122  1.0000
  O2          0.56914      0.55107      0.92000  1.0000
  O2          0.19726      0.03470      0.58963  1.0000
  O2          0.18726      0.15765      0.66676  1.0000
  O2          0.43806      0.41182      0.99505  1.0000
  O2          0.18901      0.41281      0.32563  1.0000
  O2          0.02499      0.82809      0.15684  1.0000
  O2          0.76827      0.58219      0.48924  1.0000
  O2          0.01455      0.57091      0.82382  1.0000
  F           0.05450      0.89742      0.66116  1.0000
  F           0.69951      0.54150      0.99249  1.0000
  F           0.05529      0.54537      0.32314  1.0000
  F           0.15641      0.08946      0.15818  1.0000
  F           0.46979      0.41525      0.48464  1.0000
  F           0.14802      0.44254      0.82561  1.0000
