data_cif

_audit_creation_method             'generated by GULP'

_symmetry_space_group_name_H-M     'P 1'
_symmetry_Int_Tables_number        1
_symmetry_cell_setting             triclinic

_cell_length_a                       11.9635
_cell_length_b                       12.0261
_cell_length_c                       29.4726
_cell_angle_alpha                   90.2361
_cell_angle_beta                    90.3343
_cell_angle_gamma                  120.1582

loop_
_atom_site_label
_atom_site_fract_x
_atom_site_fract_y
_atom_site_fract_z
_atom_site_occupancy
  Ge          0.31227      0.37570      0.44478  1.0000
  Si          0.22109      0.31187      0.77836  1.0000
  Si          0.28355      0.29002      0.10982  1.0000
  Si          0.89592      0.61165      0.94142  1.0000
  Si          0.97756      0.66734      0.27370  1.0000
  Si          0.92567      0.69774      0.60924  1.0000
  Si          0.97705      0.68724      0.70971  1.0000
  Si          0.93064      0.62245      0.37458  1.0000
  Si          0.90318      0.67052      0.04217  1.0000
  Si          0.22646      0.29020      0.20986  1.0000
  Si          0.27523      0.37177      0.87879  1.0000
  Ge          0.29673      0.30841      0.54452  1.0000
  Si          0.13723      0.41605      0.37754  1.0000
  Si          0.18314      0.09729      0.71616  1.0000
  Si          0.49217      0.46393      0.04497  1.0000
  Si          0.06579      0.57234      0.87578  1.0000
  Si          0.02059      0.87791      0.20907  1.0000
  Si          0.71754      0.52492      0.54155  1.0000
  Si          0.01466      0.51440      0.77400  1.0000
  Si          0.71924      0.58282      0.43846  1.0000
  Si          0.07688      0.88117      0.10760  1.0000
  Si          0.18221      0.45816      0.27495  1.0000
  Si          0.48732      0.40949      0.94332  1.0000
  Si          0.13087      0.10445      0.61481  1.0000
  Si          0.90110      0.38995      0.26126  1.0000
  Si          0.20557      0.90040      0.59668  1.0000
  Si          0.69451      0.68870      0.92805  1.0000
  Si          0.29630      0.58688      0.76140  1.0000
  Si          0.00475      0.08864      0.09302  1.0000
  Ge          0.50335      0.29090      0.42266  1.0000
  Si          0.99579      0.29366      0.89118  1.0000
  Si          0.50253      0.59611      0.55670  1.0000
  Si          0.30130      0.08905      0.22571  1.0000
  Si          0.21006      0.69936      0.38823  1.0000
  Si          0.70231      0.39322      0.05744  1.0000
  Si          0.90109      0.88713      0.72781  1.0000
  Si          0.85716      0.34200      0.36211  1.0000
  Si          0.25958      0.89760      0.69761  1.0000
  Si          0.69269      0.74177      0.02884  1.0000
  Si          0.34570      0.65020      0.86204  1.0000
  Si          0.94644      0.08028      0.19346  1.0000
  Si          0.51581      0.23993      0.52661  1.0000
  Si          0.93873      0.23775      0.79046  1.0000
  Si          0.51442      0.66078      0.45436  1.0000
  Si          0.35588      0.08242      0.12538  1.0000
  Si          0.25767      0.73639      0.28696  1.0000
  Si          0.68828      0.33136      0.95683  1.0000
  Si          0.85161      0.90195      0.62745  1.0000
  Si          0.58270      0.11391      0.37552  1.0000
  Si          0.47612      0.83333      0.71118  1.0000
  Si          0.75516      0.02159      0.04254  1.0000
  Si          0.62617      0.86823      0.87728  1.0000
  Si          0.72963      0.14254      0.20789  1.0000
  Si          0.45303      0.96484      0.54480  1.0000
  Si          0.72137      0.95639      0.77658  1.0000
  Si          0.45724      0.87936      0.44262  1.0000
  Si          0.63657      0.14605      0.10726  1.0000
  Ge          0.48334      0.01574      0.27405  1.0000
  Si          0.74914      0.11312      0.94196  1.0000
  Si          0.57332      0.84288      0.61022  1.0000
  O2          0.54320      0.00626      0.41403  1.0000
  O2          0.60045      0.91274      0.74304  1.0000
  O2          0.67439      0.06513      0.07363  1.0000
  O2          0.66845      0.99136      0.90916  1.0000
  O3          0.60556      0.05417      0.23656  1.0000
  O2          0.53246      0.92261      0.57751  1.0000
  O2          0.93834      0.56182      0.74061  1.0000
  O2          0.02836      0.75664      0.07441  1.0000
  O2          0.84782      0.66260      0.40793  1.0000
  O2          0.26098      0.41119      0.24299  1.0000
  O3          0.17919      0.23019      0.58535  1.0000
  O2          0.35866      0.33312      0.91183  1.0000
  O3          0.17755      0.33966      0.40985  1.0000
  O2          0.36796      0.41359      0.07773  1.0000
  O2          0.26033      0.22285      0.74859  1.0000
  O2          0.01656      0.64912      0.90767  1.0000
  O2          0.84269      0.57764      0.57447  1.0000
  O2          0.94040      0.75180      0.24044  1.0000
  O2          0.73413      0.21792      0.38421  1.0000
  O2          0.38503      0.89566      0.71775  1.0000
  O2          0.69309      0.86817      0.04868  1.0000
  O2          0.47149      0.77812      0.88205  1.0000
  O2          0.82254      0.08225      0.21378  1.0000
  O2          0.52374      0.11934      0.54825  1.0000
  O2          0.81311      0.10975      0.77034  1.0000
  O2          0.52659      0.79470      0.43771  1.0000
  O2          0.48147      0.08229      0.10486  1.0000
  O3          0.38153      0.85425      0.26459  1.0000
  O2          0.68513      0.20322      0.93726  1.0000
  O2          0.72817      0.90821      0.60760  1.0000
  O2          0.52489      0.84747      0.66012  1.0000
  O2          0.74015      0.05876      0.99183  1.0000
  O3          0.55407      0.04652      0.32700  1.0000
  O2          0.68592      0.13643      0.15631  1.0000
  O2          0.45599      0.91763      0.49451  1.0000
  O2          0.66679      0.91986      0.82679  1.0000
  O3          0.50575      0.18906      0.38111  1.0000
  O2          0.39464      0.68207      0.72295  1.0000
  O2          0.90760      0.09105      0.05461  1.0000
  O2          0.69470      0.78612      0.88994  1.0000
  O2          0.80251      0.29173      0.22311  1.0000
  O2          0.30261      0.90137      0.55829  1.0000
  O2          0.80301      0.88546      0.76612  1.0000
  O2          0.30848      0.79998      0.42615  1.0000
  O2          0.70495      0.29685      0.09517  1.0000
  O3          0.39690      0.09321      0.26531  1.0000
  O2          0.90016      0.19701      0.92954  1.0000
  O2          0.50975      0.69441      0.59575  1.0000
  O2          0.92250      0.63459      0.65848  1.0000
  O2          0.95723      0.66973      0.99146  1.0000
  O2          0.92366      0.67396      0.32400  1.0000
  O2          0.28352      0.34807      0.15991  1.0000
  O1          0.22329      0.30030      0.49422  1.0000
  O2          0.27778      0.31476      0.82887  1.0000
  O2          0.97977      0.33389      0.37962  1.0000
  O2          0.26991      0.02792      0.71801  1.0000
  O2          0.56124      0.61993      0.04781  1.0000
  O2          0.22245      0.66038      0.87897  1.0000
  O2          0.93426      0.94749      0.21142  1.0000
  O2          0.64748      0.36988      0.54237  1.0000
  O2          0.92772      0.35823      0.77110  1.0000
  O2          0.64740      0.66669      0.43849  1.0000
  O2          0.23364      0.95072      0.10576  1.0000
  O2          0.26658      0.61285      0.27049  1.0000
  O2          0.55479      0.32139      0.93914  1.0000
  O2          0.97424      0.03400      0.61042  1.0000
  O1          0.36103      0.28418      0.41291  1.0000
  O2          0.29601      0.45273      0.75463  1.0000
  O2          0.14049      0.22136      0.08639  1.0000
  O2          0.82730      0.68680      0.91966  1.0000
  O2          0.90091      0.52289      0.25206  1.0000
  O2          0.06935      0.76848      0.58732  1.0000
  O2          0.90092      0.75293      0.73300  1.0000
  O2          0.07577      0.69971      0.39613  1.0000
  O2          0.83660      0.52793      0.06439  1.0000
  O2          0.30169      0.22298      0.23239  1.0000
  O2          0.13091      0.29673      0.90000  1.0000
  O3          0.37186      0.46677      0.56539  1.0000
  O3          0.38941      0.54438      0.43299  1.0000
  O2          0.06476      0.23647      0.77191  1.0000
  O2          0.35917      0.20971      0.10619  1.0000
  O2          0.81380      0.45571      0.93663  1.0000
  O2          0.13303      0.74000      0.26763  1.0000
  O2          0.84734      0.77565      0.60591  1.0000
  O2          0.13319      0.76987      0.71528  1.0000
  O2          0.85447      0.46726      0.38102  1.0000
  O2          0.82049      0.74341      0.04752  1.0000
  O2          0.07070      0.20672      0.21367  1.0000
  O2          0.34737      0.52744      0.88307  1.0000
  O3          0.39215      0.23680      0.54766  1.0000
  O2          0.82976      0.31971      0.30789  1.0000
  O2          0.27803      0.90072      0.64327  1.0000
  O2          0.69178      0.75922      0.97454  1.0000
  O2          0.36626      0.66389      0.80774  1.0000
  O2          0.92943      0.08256      0.13911  1.0000
  O3          0.51158      0.21935      0.47305  1.0000
  O2          0.92124      0.22127      0.84474  1.0000
  O2          0.50656      0.66446      0.50939  1.0000
  O2          0.37429      0.08250      0.17999  1.0000
  O2          0.28107      0.76664      0.34118  1.0000
  O2          0.69417      0.31697      0.01103  1.0000
  O2          0.83126      0.89515      0.68170  1.0000
  O2          0.19590      0.56171      0.39778  1.0000
  O2          0.04154      0.01005      0.73834  1.0000
  O2          0.57815      0.40824      0.06724  1.0000
  O2          0.00890      0.43244      0.89906  1.0000
  O2          0.16129      0.96294      0.23324  1.0000
  O2          0.62278      0.57125      0.56163  1.0000
  O2          0.15646      0.57168      0.75149  1.0000
  O3          0.63253      0.44543      0.41528  1.0000
  O2          0.01949      0.96422      0.08408  1.0000
  O2          0.03859      0.39914      0.25296  1.0000
  O2          0.56848      0.54923      0.91949  1.0000
  O2          0.19248      0.02644      0.58955  1.0000
  O2          0.18303      0.15243      0.66615  1.0000
  O2          0.43651      0.41002      0.99427  1.0000
  O2          0.18597      0.41238      0.32609  1.0000
  O2          0.02251      0.82687      0.15798  1.0000
  O2          0.76223      0.57385      0.49028  1.0000
  O2          0.01311      0.56919      0.82445  1.0000
  F           0.05070      0.89218      0.66118  1.0000
  F           0.69764      0.54007      0.99224  1.0000
  F           0.05120      0.54657      0.32423  1.0000
  F           0.15552      0.08845      0.15905  1.0000
  F           0.46439      0.42174      0.48367  1.0000
  F           0.14588      0.44046      0.82573  1.0000
