data_cif

_audit_creation_method             'generated by GULP'

_symmetry_space_group_name_H-M     'P 1'
_symmetry_Int_Tables_number        1
_symmetry_cell_setting             triclinic

_cell_length_a                       14.5479
_cell_length_b                       14.5479
_cell_length_c                       16.0771
_cell_angle_alpha                   90.0000
_cell_angle_beta                    90.0000
_cell_angle_gamma                  120.0000

loop_
_atom_site_label
_atom_site_fract_x
_atom_site_fract_y
_atom_site_fract_z
_atom_site_occupancy
  Si          0.15607      0.00000      0.11111  1.0000
  Si          0.15607      0.00000      0.44444  1.0000
  Si          0.15607      0.00000      0.77778  1.0000
  Si          0.15607      0.33333      0.11111  1.0000
  Si          0.15607      0.33333      0.44444  1.0000
  Si          0.15607      0.33333      0.77778  1.0000
  Si          0.15607      0.66667      0.11111  1.0000
  Si          0.15607      0.66667      0.44444  1.0000
  Si          0.15607      0.66667      0.77778  1.0000
  Si          0.48940      0.00000      0.11111  1.0000
  Si          0.48940      0.00000      0.44444  1.0000
  Si          0.48940      0.00000      0.77778  1.0000
  Si          0.48940      0.33333      0.11111  1.0000
  Si          0.48940      0.33333      0.44444  1.0000
  Si          0.48940      0.33333      0.77778  1.0000
  Si          0.48940      0.66667      0.11111  1.0000
  Si          0.48940      0.66667      0.44444  1.0000
  Si          0.48940      0.66667      0.77778  1.0000
  Si          0.82273      0.00000      0.11111  1.0000
  Si          0.82273      0.00000      0.44444  1.0000
  Si          0.82273      0.00000      0.77778  1.0000
  Si          0.82273      0.33333      0.11111  1.0000
  Si          0.82273      0.33333      0.44444  1.0000
  Si          0.82273      0.33333      0.77778  1.0000
  Si          0.82273      0.66667      0.11111  1.0000
  Si          0.82273      0.66667      0.44444  1.0000
  Si          0.82273      0.66667      0.77778  1.0000
  Si          0.00125      0.15482      0.22222  1.0000
  Si          0.00125      0.15482      0.55556  1.0000
  Si          0.00125      0.15482      0.88889  1.0000
  Si          0.00125      0.48815      0.22222  1.0000
  Si          0.00125      0.48815      0.55556  1.0000
  Si          0.00125      0.48815      0.88889  1.0000
  Si          0.00125      0.82149      0.22222  1.0000
  Si          0.00125      0.82149      0.55556  1.0000
  Si          0.00125      0.82149      0.88889  1.0000
  Si          0.33458      0.15482      0.22222  1.0000
  Si          0.33458      0.15482      0.55556  1.0000
  Si          0.33458      0.15482      0.88889  1.0000
  Si          0.33458      0.48815      0.22222  1.0000
  Si          0.33458      0.48815      0.55556  1.0000
  Si          0.33458      0.48815      0.88889  1.0000
  Si          0.33458      0.82149      0.22222  1.0000
  Si          0.33458      0.82149      0.55556  1.0000
  Si          0.33458      0.82149      0.88889  1.0000
  Si          0.66791      0.15482      0.22222  1.0000
  Si          0.66791      0.15482      0.55556  1.0000
  Si          0.66791      0.15482      0.88889  1.0000
  Si          0.66791      0.48815      0.22222  1.0000
  Si          0.66791      0.48815      0.55556  1.0000
  Si          0.66791      0.48815      0.88889  1.0000
  Si          0.66791      0.82149      0.22222  1.0000
  Si          0.66791      0.82149      0.55556  1.0000
  Si          0.66791      0.82149      0.88889  1.0000
  Si          0.17976      0.17851      0.33333  1.0000
  Si          0.17976      0.17851      0.66667  1.0000
  Si          0.17976      0.17851      0.00000  1.0000
  Si          0.17976      0.51185      0.33333  1.0000
  Si          0.17976      0.51185      0.66667  1.0000
  Si          0.17976      0.51185      0.00000  1.0000
  Si          0.17976      0.84518      0.33333  1.0000
  Si          0.17976      0.84518      0.66667  1.0000
  Si          0.17976      0.84518      0.00000  1.0000
  Si          0.51309      0.17851      0.33333  1.0000
  Si          0.51309      0.17851      0.66667  1.0000
  Si          0.51309      0.17851      0.00000  1.0000
  Si          0.51309      0.51185      0.33333  1.0000
  Si          0.51309      0.51185      0.66667  1.0000
  Si          0.51309      0.51185      0.00000  1.0000
  Si          0.51309      0.84518      0.33333  1.0000
  Si          0.51309      0.84518      0.66667  1.0000
  Si          0.51309      0.84518      0.00000  1.0000
  Si          0.84642      0.17851      0.33333  1.0000
  Si          0.84642      0.17851      0.66667  1.0000
  Si          0.84642      0.17851      0.00000  1.0000
  Si          0.84642      0.51185      0.33333  1.0000
  Si          0.84642      0.51185      0.66667  1.0000
  Si          0.84642      0.51185      0.00000  1.0000
  Si          0.84642      0.84518      0.33333  1.0000
  Si          0.84642      0.84518      0.66667  1.0000
  Si          0.84642      0.84518      0.00000  1.0000
  O           0.13749      0.09246      0.07458  1.0000
  O           0.13749      0.09246      0.40791  1.0000
  O           0.13749      0.09246      0.74124  1.0000
  O           0.13749      0.42580      0.07458  1.0000
  O           0.13749      0.42580      0.40791  1.0000
  O           0.13749      0.42580      0.74124  1.0000
  O           0.13749      0.75913      0.07458  1.0000
  O           0.13749      0.75913      0.40791  1.0000
  O           0.13749      0.75913      0.74124  1.0000
  O           0.47082      0.09246      0.07458  1.0000
  O           0.47082      0.09246      0.40791  1.0000
  O           0.47082      0.09246      0.74124  1.0000
  O           0.47082      0.42580      0.07458  1.0000
  O           0.47082      0.42580      0.40791  1.0000
  O           0.47082      0.42580      0.74124  1.0000
  O           0.47082      0.75913      0.07458  1.0000
  O           0.47082      0.75913      0.40791  1.0000
  O           0.47082      0.75913      0.74124  1.0000
  O           0.80416      0.09246      0.07458  1.0000
  O           0.80416      0.09246      0.40791  1.0000
  O           0.80416      0.09246      0.74124  1.0000
  O           0.80416      0.42580      0.07458  1.0000
  O           0.80416      0.42580      0.40791  1.0000
  O           0.80416      0.42580      0.74124  1.0000
  O           0.80416      0.75913      0.07458  1.0000
  O           0.80416      0.75913      0.40791  1.0000
  O           0.80416      0.75913      0.74124  1.0000
  O           0.24211      0.04378      0.18569  1.0000
  O           0.24211      0.04378      0.51902  1.0000
  O           0.24211      0.04378      0.85236  1.0000
  O           0.24211      0.37711      0.18569  1.0000
  O           0.24211      0.37711      0.51902  1.0000
  O           0.24211      0.37711      0.85236  1.0000
  O           0.24211      0.71045      0.18569  1.0000
  O           0.24211      0.71045      0.51902  1.0000
  O           0.24211      0.71045      0.85236  1.0000
  O           0.57545      0.04378      0.18569  1.0000
  O           0.57545      0.04378      0.51902  1.0000
  O           0.57545      0.04378      0.85236  1.0000
  O           0.57545      0.37711      0.18569  1.0000
  O           0.57545      0.37711      0.51902  1.0000
  O           0.57545      0.37711      0.85236  1.0000
  O           0.57545      0.71045      0.18569  1.0000
  O           0.57545      0.71045      0.51902  1.0000
  O           0.57545      0.71045      0.85236  1.0000
  O           0.90878      0.04378      0.18569  1.0000
  O           0.90878      0.04378      0.51902  1.0000
  O           0.90878      0.04378      0.85236  1.0000
  O           0.90878      0.37711      0.18569  1.0000
  O           0.90878      0.37711      0.51902  1.0000
  O           0.90878      0.37711      0.85236  1.0000
  O           0.90878      0.71045      0.18569  1.0000
  O           0.90878      0.71045      0.51902  1.0000
  O           0.90878      0.71045      0.85236  1.0000
  O           0.29080      0.19709      0.29680  1.0000
  O           0.29080      0.19709      0.63013  1.0000
  O           0.29080      0.19709      0.96347  1.0000
  O           0.29080      0.53042      0.29680  1.0000
  O           0.29080      0.53042      0.63013  1.0000
  O           0.29080      0.53042      0.96347  1.0000
  O           0.29080      0.86376      0.29680  1.0000
  O           0.29080      0.86376      0.63013  1.0000
  O           0.29080      0.86376      0.96347  1.0000
  O           0.62413      0.19709      0.29680  1.0000
  O           0.62413      0.19709      0.63013  1.0000
  O           0.62413      0.19709      0.96347  1.0000
  O           0.62413      0.53042      0.29680  1.0000
  O           0.62413      0.53042      0.63013  1.0000
  O           0.62413      0.53042      0.96347  1.0000
  O           0.62413      0.86376      0.29680  1.0000
  O           0.62413      0.86376      0.63013  1.0000
  O           0.62413      0.86376      0.96347  1.0000
  O           0.95747      0.19709      0.29680  1.0000
  O           0.95747      0.19709      0.63013  1.0000
  O           0.95747      0.19709      0.96347  1.0000
  O           0.95747      0.53042      0.29680  1.0000
  O           0.95747      0.53042      0.63013  1.0000
  O           0.95747      0.53042      0.96347  1.0000
  O           0.95747      0.86376      0.29680  1.0000
  O           0.95747      0.86376      0.63013  1.0000
  O           0.95747      0.86376      0.96347  1.0000
  O           0.04502      0.24087      0.14764  1.0000
  O           0.04502      0.24087      0.48098  1.0000
  O           0.04502      0.24087      0.81431  1.0000
  O           0.04502      0.57420      0.14764  1.0000
  O           0.04502      0.57420      0.48098  1.0000
  O           0.04502      0.57420      0.81431  1.0000
  O           0.04502      0.90754      0.14764  1.0000
  O           0.04502      0.90754      0.48098  1.0000
  O           0.04502      0.90754      0.81431  1.0000
  O           0.37836      0.24087      0.14764  1.0000
  O           0.37836      0.24087      0.48098  1.0000
  O           0.37836      0.24087      0.81431  1.0000
  O           0.37836      0.57420      0.14764  1.0000
  O           0.37836      0.57420      0.48098  1.0000
  O           0.37836      0.57420      0.81431  1.0000
  O           0.37836      0.90754      0.14764  1.0000
  O           0.37836      0.90754      0.48098  1.0000
  O           0.37836      0.90754      0.81431  1.0000
  O           0.71169      0.24087      0.14764  1.0000
  O           0.71169      0.24087      0.48098  1.0000
  O           0.71169      0.24087      0.81431  1.0000
  O           0.71169      0.57420      0.14764  1.0000
  O           0.71169      0.57420      0.48098  1.0000
  O           0.71169      0.57420      0.81431  1.0000
  O           0.71169      0.90754      0.14764  1.0000
  O           0.71169      0.90754      0.48098  1.0000
  O           0.71169      0.90754      0.81431  1.0000
  O           0.19833      0.28955      0.03653  1.0000
  O           0.19833      0.28955      0.36987  1.0000
  O           0.19833      0.28955      0.70320  1.0000
  O           0.19833      0.62289      0.03653  1.0000
  O           0.19833      0.62289      0.36987  1.0000
  O           0.19833      0.62289      0.70320  1.0000
  O           0.19833      0.95622      0.03653  1.0000
  O           0.19833      0.95622      0.36987  1.0000
  O           0.19833      0.95622      0.70320  1.0000
  O           0.53167      0.28955      0.03653  1.0000
  O           0.53167      0.28955      0.36987  1.0000
  O           0.53167      0.28955      0.70320  1.0000
  O           0.53167      0.62289      0.03653  1.0000
  O           0.53167      0.62289      0.36987  1.0000
  O           0.53167      0.62289      0.70320  1.0000
  O           0.53167      0.95622      0.03653  1.0000
  O           0.53167      0.95622      0.36987  1.0000
  O           0.53167      0.95622      0.70320  1.0000
  O           0.86500      0.28955      0.03653  1.0000
  O           0.86500      0.28955      0.36987  1.0000
  O           0.86500      0.28955      0.70320  1.0000
  O           0.86500      0.62289      0.03653  1.0000
  O           0.86500      0.62289      0.36987  1.0000
  O           0.86500      0.62289      0.70320  1.0000
  O           0.86500      0.95622      0.03653  1.0000
  O           0.86500      0.95622      0.36987  1.0000
  O           0.86500      0.95622      0.70320  1.0000
  O           0.09371      0.13624      0.25875  1.0000
  O           0.09371      0.13624      0.59209  1.0000
  O           0.09371      0.13624      0.92542  1.0000
  O           0.09371      0.46958      0.25875  1.0000
  O           0.09371      0.46958      0.59209  1.0000
  O           0.09371      0.46958      0.92542  1.0000
  O           0.09371      0.80291      0.25875  1.0000
  O           0.09371      0.80291      0.59209  1.0000
  O           0.09371      0.80291      0.92542  1.0000
  O           0.42704      0.13624      0.25875  1.0000
  O           0.42704      0.13624      0.59209  1.0000
  O           0.42704      0.13624      0.92542  1.0000
  O           0.42704      0.46958      0.25875  1.0000
  O           0.42704      0.46958      0.59209  1.0000
  O           0.42704      0.46958      0.92542  1.0000
  O           0.42704      0.80291      0.25875  1.0000
  O           0.42704      0.80291      0.59209  1.0000
  O           0.42704      0.80291      0.92542  1.0000
  O           0.76038      0.13624      0.25875  1.0000
  O           0.76038      0.13624      0.59209  1.0000
  O           0.76038      0.13624      0.92542  1.0000
  O           0.76038      0.46958      0.25875  1.0000
  O           0.76038      0.46958      0.59209  1.0000
  O           0.76038      0.46958      0.92542  1.0000
  O           0.76038      0.80291      0.25875  1.0000
  O           0.76038      0.80291      0.59209  1.0000
  O           0.76038      0.80291      0.92542  1.0000
