data_cif

_audit_creation_method             'generated by GULP'

_symmetry_space_group_name_H-M     'P 1'
_symmetry_Int_Tables_number        1
_symmetry_cell_setting             triclinic

_cell_length_a                       11.9534
_cell_length_b                       11.9748
_cell_length_c                       29.3556
_cell_angle_alpha                   90.1408
_cell_angle_beta                    90.3824
_cell_angle_gamma                  120.1299

loop_
_atom_site_label
_atom_site_fract_x
_atom_site_fract_y
_atom_site_fract_z
_atom_site_occupancy
  Si          0.69960      0.37570      0.03389  1.0000
  Si          0.62208      0.32740      0.36759  1.0000
  Si          0.68589      0.30267      0.70041  1.0000
  Si          0.30332      0.62591      0.53584  1.0000
  Si          0.37360      0.68436      0.86622  1.0000
  Si          0.32148      0.70185      0.20219  1.0000
  Si          0.37933      0.70521      0.30321  1.0000
  Si          0.31666      0.61701      0.96842  1.0000
  Si          0.30216      0.68024      0.63675  1.0000
  Si          0.63863      0.30784      0.80127  1.0000
  Si          0.68064      0.38242      0.46858  1.0000
  Si          0.69861      0.32130      0.13487  1.0000
  Si          0.52679      0.41017      0.96679  1.0000
  Si          0.58396      0.11667      0.30230  1.0000
  Si          0.89358      0.47420      0.63518  1.0000
  Si          0.47406      0.58705      0.47066  1.0000
  Si          0.42602      0.90329      0.80385  1.0000
  Si          0.11007      0.52787      0.13686  1.0000
  Si          0.41804      0.53384      0.36858  1.0000
  Si          0.10927      0.57851      0.03480  1.0000
  Si          0.47401      0.89263      0.70233  1.0000
  Si          0.58932      0.47109      0.86381  1.0000
  Si          0.89326      0.42124      0.53330  1.0000
  Si          0.52799      0.11247      0.20022  1.0000
  Ge          0.31528      0.41441      0.85828  1.0000
  Si          0.59900      0.90321      0.18683  1.0000
  Si          0.10215      0.70225      0.51992  1.0000
  Si          0.69827      0.60518      0.35371  1.0000
  Si          0.40492      0.10353      0.68741  1.0000
  Si          0.90000      0.29747      0.01982  1.0000
  Si          0.40269      0.30602      0.48424  1.0000
  Si          0.90084      0.59986      0.15071  1.0000
  Si          0.71048      0.10491      0.81709  1.0000
  Si          0.59905      0.69514      0.98313  1.0000
  Si          0.10158      0.40086      0.65094  1.0000
  Si          0.30292      0.90720      0.31722  1.0000
  Si          0.24230      0.32930      0.95400  1.0000
  Si          0.66074      0.91473      0.28776  1.0000
  Si          0.09399      0.75351      0.62085  1.0000
  Si          0.75263      0.66375      0.45468  1.0000
  Si          0.35173      0.10645      0.78849  1.0000
  Si          0.90778      0.24858      0.12099  1.0000
  Si          0.34145      0.25549      0.38315  1.0000
  Si          0.90864      0.65640      0.04972  1.0000
  Si          0.75532      0.09246      0.71608  1.0000
  Si          0.66031      0.75183      0.88141  1.0000
  Si          0.09461      0.34434      0.54958  1.0000
  Si          0.24958      0.91078      0.21613  1.0000
  Si          0.96742      0.11632      0.97065  1.0000
  Si          0.87829      0.85202      0.30285  1.0000
  Si          0.15554      0.03336      0.63629  1.0000
  Si          0.03365      0.88194      0.46955  1.0000
  Si          0.12966      0.16403      0.80440  1.0000
  Si          0.84587      0.96897      0.13651  1.0000
  Si          0.12350      0.97504      0.36828  1.0000
  Si          0.84617      0.87336      0.03556  1.0000
  Si          0.03451      0.15364      0.70230  1.0000
  Si          0.88568      0.03122      0.86786  1.0000
  Si          0.15593      0.12628      0.53500  1.0000
  Si          0.96893      0.84828      0.20164  1.0000
  O2          0.92262      0.99388      0.00286  1.0000
  O2          0.00086      0.93240      0.33554  1.0000
  O2          0.07607      0.07426      0.66917  1.0000
  O2          0.07593      0.00403      0.50219  1.0000
  O2          0.00686      0.06978      0.83588  1.0000
  O2          0.92642      0.92825      0.16933  1.0000
  O2          0.34092      0.58321      0.33627  1.0000
  O2          0.42417      0.76534      0.67043  1.0000
  O2          0.23467      0.65514      0.00233  1.0000
  O2          0.67979      0.43221      0.83438  1.0000
  O2          0.57531      0.23666      0.16728  1.0000
  O2          0.76693      0.34387      0.50056  1.0000
  O2          0.57747      0.33696      0.00003  1.0000
  O2          0.76769      0.42444      0.66714  1.0000
  O2          0.66082      0.24353      0.33447  1.0000
  O2          0.42704      0.66434      0.50347  1.0000
  O2          0.23585      0.57704      0.16967  1.0000
  O2          0.34567      0.78335      0.83806  1.0000
  O2          0.12072      0.20921      0.97951  1.0000
  O2          0.78837      0.91651      0.30785  1.0000
  O2          0.09268      0.87899      0.64103  1.0000
  O2          0.87935      0.79029      0.47507  1.0000
  O2          0.22974      0.10963      0.80987  1.0000
  O2          0.90891      0.12340      0.14143  1.0000
  O2          0.21377      0.12927      0.36291  1.0000
  O2          0.91008      0.78343      0.02977  1.0000
  O2          0.87982      0.09013      0.69566  1.0000
  O2          0.78687      0.87723      0.86203  1.0000
  O2          0.09365      0.21783      0.52908  1.0000
  O2          0.12299      0.91072      0.19577  1.0000
  O2          0.93085      0.86282      0.25230  1.0000
  O2          0.14207      0.07381      0.58566  1.0000
  O2          0.93340      0.06322      0.91972  1.0000
  O2          0.07334      0.13978      0.75294  1.0000
  O2          0.85843      0.92656      0.08612  1.0000
  O2          0.07153      0.93467      0.41884  1.0000
  O2          0.89577      0.19743      0.98149  1.0000
  O2          0.79513      0.70085      0.31495  1.0000
  O2          0.30766      0.10323      0.64847  1.0000
  O2          0.10406      0.80048      0.48133  1.0000
  O3          0.20020      0.31066      0.81624  1.0000
  O2          0.69410      0.89969      0.14821  1.0000
  O2          0.20608      0.90635      0.35584  1.0000
  O2          0.69369      0.78852      0.02302  1.0000
  O2          0.10341      0.30526      0.68957  1.0000
  O2          0.80806      0.10554      0.85595  1.0000
  O2          0.30785      0.20814      0.52291  1.0000
  O2          0.89859      0.69628      0.18925  1.0000
  O2          0.32177      0.64602      0.25273  1.0000
  O2          0.36101      0.68251      0.58650  1.0000
  O2          0.31839      0.67422      0.91828  1.0000
  O2          0.69217      0.36379      0.75070  1.0000
  O2          0.64103      0.31923      0.08408  1.0000
  O2          0.68003      0.32625      0.41786  1.0000
  O2          0.37080      0.32412      0.96994  1.0000
  O2          0.67165      0.04813      0.30560  1.0000
  O2          0.96131      0.63038      0.63854  1.0000
  O2          0.63086      0.67428      0.47324  1.0000
  O2          0.34034      0.97308      0.80624  1.0000
  O2          0.04086      0.37157      0.13946  1.0000
  O2          0.33029      0.37742      0.36500  1.0000
  O2          0.04048      0.66583      0.03116  1.0000
  O2          0.63026      0.96004      0.69836  1.0000
  O2          0.66976      0.62867      0.86441  1.0000
  O2          0.96210      0.33391      0.53042  1.0000
  O2          0.37125      0.04281      0.19724  1.0000
  O2          0.76738      0.30032      0.01165  1.0000
  O2          0.69672      0.47068      0.34535  1.0000
  O2          0.54098      0.23445      0.67863  1.0000
  O2          0.23613      0.70159      0.51287  1.0000
  O3          0.29809      0.54819      0.84165  1.0000
  O2          0.46414      0.76902      0.17938  1.0000
  O2          0.30449      0.77421      0.32501  1.0000
  O2          0.46300      0.69061      0.98889  1.0000
  O2          0.23495      0.53659      0.65855  1.0000
  O2          0.71480      0.24109      0.82399  1.0000
  O2          0.53768      0.30700      0.49108  1.0000
  O2          0.76663      0.46511      0.15730  1.0000
  O2          0.78022      0.53217      0.02963  1.0000
  O2          0.46543      0.25308      0.36287  1.0000
  O2          0.75831      0.21918      0.69583  1.0000
  O2          0.22174      0.46965      0.53043  1.0000
  O2          0.53089      0.74757      0.86377  1.0000
  O2          0.24668      0.78306      0.19680  1.0000
  O2          0.53591      0.78885      0.30774  1.0000
  O2          0.24994      0.46202      0.97180  1.0000
  O2          0.22003      0.75417      0.64104  1.0000
  O2          0.48286      0.22916      0.80742  1.0000
  O2          0.75427      0.53852      0.47383  1.0000
  O2          0.78151      0.24829      0.14010  1.0000
  O3          0.21285      0.30407      0.90133  1.0000
  O2          0.67623      0.91024      0.23323  1.0000
  O2          0.09677      0.77274      0.56630  1.0000
  O2          0.77080      0.68078      0.40014  1.0000
  O2          0.33409      0.10641      0.73377  1.0000
  O2          0.90431      0.22800      0.06652  1.0000
  O2          0.32590      0.23593      0.43763  1.0000
  O2          0.90696      0.67487      0.10417  1.0000
  O2          0.77755      0.09588      0.77059  1.0000
  O2          0.66939      0.76282      0.93636  1.0000
  O2          0.09683      0.32695      0.60406  1.0000
  O2          0.23140      0.91025      0.27060  1.0000
  O2          0.57840      0.55282      0.98793  1.0000
  O2          0.44314      0.03300      0.32555  1.0000
  O2          0.97689      0.41663      0.65879  1.0000
  O2          0.41788      0.44577      0.49340  1.0000
  O2          0.56911      0.98270      0.82689  1.0000
  O2          0.02566      0.58469      0.15984  1.0000
  O2          0.55874      0.59199      0.34504  1.0000
  O2          0.02673      0.43672      0.01134  1.0000
  O2          0.41513      0.97557      0.67951  1.0000
  O3          0.45374      0.41241      0.83806  1.0000
  O2          0.97670      0.56249      0.51020  1.0000
  O2          0.58532      0.02842      0.17719  1.0000
  O2          0.58282      0.16784      0.25108  1.0000
  O2          0.83979      0.42091      0.58406  1.0000
  O2          0.57896      0.41502      0.91570  1.0000
  O2          0.42323      0.84325      0.75372  1.0000
  O2          0.16332      0.58065      0.08594  1.0000
  O2          0.41902      0.58664      0.41973  1.0000
  F           0.45168      0.90578      0.25125  1.0000
  F           0.10151      0.55254      0.58459  1.0000
  F           0.42224      0.51831      0.90708  1.0000
  F           0.55980      0.10494      0.75230  1.0000
  F           0.90108      0.45019      0.08439  1.0000
  F           0.55019      0.45595      0.41820  1.0000
