data_cif

_audit_creation_method             'generated by GULP'

_symmetry_space_group_name_H-M     'P 1'
_symmetry_Int_Tables_number        1
_symmetry_cell_setting             triclinic

_cell_length_a                       11.9937
_cell_length_b                       11.9895
_cell_length_c                       29.4690
_cell_angle_alpha                   90.1171
_cell_angle_beta                    90.0767
_cell_angle_gamma                  119.9780

loop_
_atom_site_label
_atom_site_fract_x
_atom_site_fract_y
_atom_site_fract_z
_atom_site_occupancy
  Si          0.69960      0.37570      0.03389  1.0000
  Si          0.61788      0.32156      0.36510  1.0000
  Si          0.66740      0.29520      0.69853  1.0000
  Si          0.28978      0.61356      0.53158  1.0000
  Si          0.37607      0.67218      0.86696  1.0000
  Si          0.32183      0.69977      0.19913  1.0000
  Si          0.37691      0.70053      0.29983  1.0000
  Si          0.32252      0.61864      0.96752  1.0000
  Si          0.29059      0.67405      0.63170  1.0000
  Si          0.62394      0.29577      0.80023  1.0000
  Si          0.67308      0.37647      0.46592  1.0000
  Si          0.70191      0.31921      0.13413  1.0000
  Si          0.53152      0.41469      0.96734  1.0000
  Si          0.58043      0.11024      0.30073  1.0000
  Si          0.87648      0.46509      0.63295  1.0000
  Si          0.46501      0.57985      0.46611  1.0000
  Si          0.41778      0.88070      0.80071  1.0000
  Si          0.11178      0.52536      0.13438  1.0000
  Si          0.41386      0.52719      0.36428  1.0000
  Si          0.11274      0.58000      0.03286  1.0000
  Si          0.45836      0.88231      0.69844  1.0000
  Si          0.58164      0.46407      0.86561  1.0000
  Si          0.88096      0.41035      0.53148  1.0000
  Si          0.52825      0.10964      0.19899  1.0000
  Si          0.30114      0.39515      0.85145  1.0000
  Si          0.59949      0.90081      0.18506  1.0000
  Si          0.08804      0.69023      0.51600  1.0000
  Si          0.69392      0.59887      0.35045  1.0000
  Si          0.38728      0.09307      0.68723  1.0000
  Si          0.90148      0.30147      0.01823  1.0000
  Si          0.39531      0.30040      0.47936  1.0000
  Si          0.90368      0.59707      0.14960  1.0000
  Si          0.69895      0.09268      0.81256  1.0000
  Si          0.60067      0.69419      0.98194  1.0000
  Si          0.08851      0.39918      0.64823  1.0000
  Si          0.30041      0.90161      0.31450  1.0000
  Si          0.25393      0.33898      0.95212  1.0000
  Si          0.65764      0.90890      0.28572  1.0000
  Si          0.07961      0.74178      0.61652  1.0000
  Si          0.74348      0.65693      0.45123  1.0000
  Si          0.34398      0.08498      0.78891  1.0000
  Si          0.91074      0.24702      0.11825  1.0000
  Si          0.33679      0.24871      0.37887  1.0000
  Si          0.91036      0.65473      0.04904  1.0000
  Si          0.73717      0.08485      0.71114  1.0000
  Si          0.65510      0.74138      0.88118  1.0000
  Si          0.08160      0.33267      0.54840  1.0000
  Si          0.24994      0.90873      0.21379  1.0000
  Ge          0.97039      0.11892      0.96769  1.0000
  Si          0.87507      0.84629      0.30017  1.0000
  Si          0.14384      0.02150      0.63084  1.0000
  Si          0.02390      0.87366      0.46551  1.0000
  Ge          0.12240      0.14309      0.79983  1.0000
  Si          0.84697      0.96678      0.13460  1.0000
  Si          0.11925      0.96815      0.36484  1.0000
  Si          0.84724      0.87113      0.03393  1.0000
  Ge          0.01913      0.14479      0.69503  1.0000
  Si          0.87231      0.01849      0.86438  1.0000
  Si          0.14900      0.11747      0.53036  1.0000
  Si          0.96973      0.84583      0.19951  1.0000
  O3          0.93165      0.99110      0.00272  1.0000
  O2          0.99710      0.92602      0.33255  1.0000
  O3          0.05107      0.06007      0.65511  1.0000
  O2          0.06686      0.99755      0.49709  1.0000
  O3          0.98740      0.05058      0.83102  1.0000
  O2          0.92701      0.92526      0.16720  1.0000
  O2          0.33780      0.57687      0.33207  1.0000
  O2          0.41198      0.75988      0.66477  1.0000
  O2          0.23830      0.65658      0.00062  1.0000
  O2          0.66114      0.41840      0.83320  1.0000
  O2          0.57915      0.23522      0.16674  1.0000
  O2          0.75606      0.33580      0.49854  1.0000
  O2          0.57807      0.33798      0.00058  1.0000
  O2          0.75028      0.41683      0.66500  1.0000
  O2          0.65677      0.23634      0.33292  1.0000
  O2          0.41240      0.65276      0.49872  1.0000
  O2          0.23767      0.57571      0.16670  1.0000
  O2          0.34036      0.75721      0.83360  1.0000
  O3          0.13400      0.21565      0.97404  1.0000
  O2          0.78434      0.90961      0.30562  1.0000
  O2          0.08194      0.86805      0.63696  1.0000
  O2          0.86979      0.78393      0.47097  1.0000
  O3          0.22305      0.08311      0.81215  1.0000
  O2          0.91128      0.12136      0.13847  1.0000
  O2          0.20999      0.12213      0.35923  1.0000
  O2          0.90935      0.77947      0.02908  1.0000
  O3          0.85552      0.07974      0.68885  1.0000
  O2          0.77780      0.86505      0.85971  1.0000
  O2          0.08203      0.20573      0.52926  1.0000
  O2          0.12369      0.90926      0.19401  1.0000
  O2          0.92880      0.85906      0.24983  1.0000
  O2          0.14931      0.05984      0.57874  1.0000
  O3          0.92818      0.05828      0.91415  1.0000
  O1          0.07135      0.11827      0.74508  1.0000
  O2          0.85684      0.92278      0.08456  1.0000
  O2          0.06560      0.92644      0.41511  1.0000
  O3          0.89520      0.20567      0.97888  1.0000
  O2          0.79244      0.69514      0.31225  1.0000
  O2          0.28950      0.09633      0.65005  1.0000
  O2          0.09060      0.78900      0.47774  1.0000
  O3          0.20425      0.30535      0.81227  1.0000
  O2          0.69623      0.89913      0.14698  1.0000
  O2          0.20189      0.89957      0.35270  1.0000
  O2          0.69641      0.79234      0.02042  1.0000
  O3          0.09225      0.30899      0.68770  1.0000
  O2          0.79661      0.09407      0.85094  1.0000
  O2          0.29854      0.20268      0.51720  1.0000
  O2          0.90183      0.69409      0.18781  1.0000
  O2          0.32091      0.64318      0.24947  1.0000
  O2          0.34793      0.67327      0.58160  1.0000
  O2          0.32126      0.67551      0.91733  1.0000
  O2          0.67454      0.35292      0.74942  1.0000
  O2          0.64312      0.31991      0.08422  1.0000
  O2          0.67399      0.32077      0.41547  1.0000
  O2          0.37637      0.32895      0.97002  1.0000
  O2          0.66767      0.04138      0.30399  1.0000
  O2          0.94660      0.62134      0.63517  1.0000
  O2          0.62116      0.66711      0.46960  1.0000
  O2          0.33375      0.95158      0.80521  1.0000
  O2          0.04287      0.36920      0.13704  1.0000
  O2          0.32658      0.37110      0.36078  1.0000
  O2          0.04298      0.66633      0.03033  1.0000
  O2          0.61318      0.95236      0.69427  1.0000
  O2          0.66652      0.61993      0.86296  1.0000
  O2          0.94960      0.32260      0.52919  1.0000
  O2          0.37220      0.04094      0.19550  1.0000
  O2          0.76725      0.30074      0.01172  1.0000
  O2          0.69327      0.46463      0.34289  1.0000
  O2          0.52156      0.22603      0.67848  1.0000
  O2          0.22050      0.68721      0.50904  1.0000
  O2          0.30096      0.52920      0.84497  1.0000
  O2          0.46513      0.76775      0.17709  1.0000
  O2          0.30152      0.76839      0.32208  1.0000
  O2          0.46611      0.69263      0.98959  1.0000
  O2          0.22304      0.53255      0.65465  1.0000
  O2          0.70026      0.22720      0.82102  1.0000
  O2          0.52949      0.30166      0.48764  1.0000
  O2          0.77115      0.46207      0.15689  1.0000
  O2          0.78304      0.53103      0.02947  1.0000
  O2          0.46219      0.24797      0.35949  1.0000
  O2          0.73912      0.21214      0.69225  1.0000
  O2          0.20837      0.45725      0.52871  1.0000
  O2          0.53094      0.74438      0.86206  1.0000
  O2          0.24846      0.78227      0.19410  1.0000
  O2          0.53263      0.78278      0.30516  1.0000
  O2          0.24940      0.46317      0.97124  1.0000
  O2          0.20731      0.74609      0.63584  1.0000
  O2          0.46981      0.21251      0.80729  1.0000
  O2          0.74564      0.53238      0.47086  1.0000
  O2          0.78359      0.24473      0.13751  1.0000
  O2          0.22950      0.31734      0.89757  1.0000
  O2          0.67429      0.90592      0.23145  1.0000
  O2          0.08103      0.75929      0.56220  1.0000
  O2          0.76289      0.67386      0.39696  1.0000
  O2          0.31909      0.09150      0.73485  1.0000
  O2          0.91009      0.22867      0.06369  1.0000
  O2          0.32040      0.22975      0.43309  1.0000
  O2          0.90888      0.67171      0.10335  1.0000
  O2          0.76773      0.09117      0.76532  1.0000
  O2          0.67429      0.76397      0.93548  1.0000
  O2          0.08117      0.31676      0.60301  1.0000
  O2          0.23081      0.90670      0.26808  1.0000
  O2          0.58907      0.55606      0.99026  1.0000
  O2          0.43950      0.02663      0.32374  1.0000
  O2          0.96187      0.41117      0.65689  1.0000
  O2          0.40797      0.43877      0.48870  1.0000
  O2          0.56172      0.96508      0.82153  1.0000
  O2          0.02847      0.58230      0.15809  1.0000
  O2          0.55474      0.58450      0.34121  1.0000
  O2          0.02809      0.43971      0.00931  1.0000
  O2          0.39728      0.96568      0.67795  1.0000
  O2          0.43991      0.40691      0.84288  1.0000
  O2          0.96404      0.55010      0.50757  1.0000
  O2          0.58576      0.02600      0.17601  1.0000
  O2          0.58053      0.16282      0.24988  1.0000
  O2          0.82585      0.41086      0.58194  1.0000
  O2          0.58389      0.41278      0.91655  1.0000
  O2          0.41070      0.82674      0.74942  1.0000
  O2          0.16523      0.57899      0.08370  1.0000
  O2          0.41331      0.58038      0.41511  1.0000
  F           0.45021      0.90194      0.24970  1.0000
  F           0.08677      0.53960      0.58258  1.0000
  F           0.44968      0.54204      0.91665  1.0000
  F           0.54450      0.09224      0.74987  1.0000
  F           0.90429      0.44710      0.08347  1.0000
  F           0.54377      0.44982      0.41508  1.0000
