data_cif

_audit_creation_method             'generated by GULP'

_symmetry_space_group_name_H-M     'P 1'
_symmetry_Int_Tables_number        1
_symmetry_cell_setting             triclinic

_cell_length_a                       11.9839
_cell_length_b                       11.9814
_cell_length_c                       29.4894
_cell_angle_alpha                   90.2057
_cell_angle_beta                    90.0479
_cell_angle_gamma                  119.9060

loop_
_atom_site_label
_atom_site_fract_x
_atom_site_fract_y
_atom_site_fract_z
_atom_site_occupancy
  Si          0.69960      0.37570      0.03389  1.0000
  Si          0.61593      0.32232      0.36500  1.0000
  Si          0.67032      0.29106      0.69799  1.0000
  Si          0.29106      0.61752      0.53159  1.0000
  Si          0.36968      0.67051      0.86695  1.0000
  Si          0.32001      0.69900      0.19948  1.0000
  Si          0.37549      0.70111      0.30017  1.0000
  Si          0.32287      0.62215      0.96800  1.0000
  Si          0.29064      0.67306      0.63238  1.0000
  Si          0.61766      0.29390      0.79860  1.0000
  Si          0.67192      0.37774      0.46557  1.0000
  Si          0.70047      0.31843      0.13397  1.0000
  Si          0.53194      0.41603      0.96742  1.0000
  Si          0.57872      0.11104      0.30051  1.0000
  Si          0.87826      0.46482      0.63217  1.0000
  Si          0.46495      0.58148      0.46664  1.0000
  Si          0.41292      0.87773      0.80024  1.0000
  Si          0.11032      0.52438      0.13462  1.0000
  Si          0.41245      0.52842      0.36492  1.0000
  Si          0.11242      0.58016      0.03322  1.0000
  Si          0.46436      0.88106      0.69851  1.0000
  Si          0.57347      0.45838      0.86541  1.0000
  Si          0.88154      0.41362      0.53044  1.0000
  Si          0.52629      0.10943      0.19883  1.0000
  Si          0.29302      0.39180      0.85353  1.0000
  Si          0.59739      0.90017      0.18529  1.0000
  Si          0.08933      0.69369      0.51660  1.0000
  Si          0.69250      0.59992      0.35064  1.0000
  Si          0.39029      0.08908      0.68435  1.0000
  Si          0.90159      0.30141      0.01788  1.0000
  Si          0.39453      0.30152      0.48002  1.0000
  Si          0.90200      0.59633      0.14986  1.0000
  Si          0.69092      0.09151      0.81460  1.0000
  Si          0.60148      0.69702      0.98071  1.0000
  Si          0.08861      0.39575      0.64592  1.0000
  Si          0.29893      0.90262      0.31448  1.0000
  Si          0.25380      0.34184      0.95459  1.0000
  Si          0.65606      0.90944      0.28582  1.0000
  Si          0.08012      0.74292      0.61727  1.0000
  Si          0.74329      0.65841      0.45130  1.0000
  Si          0.33941      0.08130      0.78541  1.0000
  Si          0.90954      0.24627      0.11792  1.0000
  Si          0.33511      0.24989      0.37953  1.0000
  Si          0.90952      0.65442      0.04945  1.0000
  Si          0.74307      0.08267      0.71427  1.0000
  Si          0.64805      0.73630      0.87961  1.0000
  Si          0.08304      0.33643      0.54560  1.0000
  Si          0.24823      0.90848      0.21383  1.0000
  Ge          0.97403      0.12000      0.96876  1.0000
  Si          0.87372      0.84700      0.30038  1.0000
  Si          0.14423      0.02345      0.63093  1.0000
  Si          0.02363      0.87511      0.46570  1.0000
  Ge          0.12059      0.14479      0.79706  1.0000
  Si          0.84475      0.96563      0.13484  1.0000
  Si          0.11785      0.96940      0.36506  1.0000
  Si          0.84711      0.87125      0.03417  1.0000
  Si          0.02356      0.14674      0.69465  1.0000
  Ge          0.86895      0.01677      0.86380  1.0000
  Si          0.14783      0.11941      0.53028  1.0000
  Si          0.96786      0.84523      0.19976  1.0000
  O3          0.93392      0.99252      0.00408  1.0000
  O2          0.99561      0.92713      0.33279  1.0000
  O2          0.05777      0.06729      0.65856  1.0000
  O2          0.06671      0.99878      0.49735  1.0000
  O1          0.98128      0.04676      0.82353  1.0000
  O2          0.92490      0.92471      0.16762  1.0000
  O2          0.33642      0.57815      0.33269  1.0000
  O2          0.41392      0.75682      0.66517  1.0000
  O2          0.23847      0.65939      0.00140  1.0000
  O2          0.65239      0.41510      0.83183  1.0000
  O2          0.57742      0.23460      0.16643  1.0000
  O2          0.75627      0.33816      0.49786  1.0000
  O2          0.57858      0.33934      0.00052  1.0000
  O2          0.75242      0.41248      0.66453  1.0000
  O2          0.65484      0.23741      0.33258  1.0000
  O2          0.41473      0.65674      0.49924  1.0000
  O2          0.23585      0.57460      0.16715  1.0000
  O2          0.33322      0.75400      0.83295  1.0000
  O3          0.13622      0.22047      0.97802  1.0000
  O2          0.78302      0.91055      0.30571  1.0000
  O2          0.08012      0.86952      0.63716  1.0000
  O2          0.86961      0.78513      0.47113  1.0000
  O3          0.21859      0.08105      0.80798  1.0000
  O2          0.90970      0.12037      0.13806  1.0000
  O2          0.20814      0.12349      0.35988  1.0000
  O2          0.90845      0.77887      0.02929  1.0000
  O2          0.86857      0.08162      0.69427  1.0000
  O3          0.77001      0.85360      0.85704  1.0000
  O2          0.08320      0.20947      0.52625  1.0000
  O2          0.12175      0.90854      0.19401  1.0000
  O2          0.92766      0.85901      0.25013  1.0000
  O2          0.14079      0.06279      0.57960  1.0000
  O1          0.94333      0.06057      0.91506  1.0000
  O3          0.08490      0.13743      0.74066  1.0000
  O2          0.85304      0.91911      0.08509  1.0000
  O2          0.06446      0.92712      0.41526  1.0000
  O3          0.89564      0.20527      0.97853  1.0000
  O2          0.79083      0.69593      0.31244  1.0000
  O2          0.29336      0.09169      0.64642  1.0000
  O2          0.09173      0.79217      0.47835  1.0000
  O3          0.19414      0.30249      0.81496  1.0000
  O2          0.69415      0.89845      0.14725  1.0000
  O2          0.20069      0.90105      0.35269  1.0000
  O2          0.69771      0.79557      0.01891  1.0000
  O2          0.08803      0.29853      0.68400  1.0000
  O3          0.78395      0.09598      0.85461  1.0000
  O2          0.29852      0.20324      0.51807  1.0000
  O2          0.89991      0.69332      0.18812  1.0000
  O2          0.31947      0.64316      0.24987  1.0000
  O2          0.34760      0.67343      0.58209  1.0000
  O2          0.31866      0.67704      0.91773  1.0000
  O2          0.67240      0.35045      0.74816  1.0000
  O2          0.64220      0.31917      0.08400  1.0000
  O2          0.67255      0.32148      0.41521  1.0000
  O2          0.37715      0.33223      0.97147  1.0000
  O2          0.66611      0.04223      0.30389  1.0000
  O2          0.94745      0.62111      0.63558  1.0000
  O2          0.62109      0.66863      0.46977  1.0000
  O2          0.32770      0.94797      0.80274  1.0000
  O2          0.04143      0.36819      0.13702  1.0000
  O2          0.32503      0.37236      0.36146  1.0000
  O2          0.04229      0.66623      0.03087  1.0000
  O2          0.62053      0.95065      0.69550  1.0000
  O2          0.65765      0.61321      0.86240  1.0000
  O2          0.95041      0.32614      0.52721  1.0000
  O2          0.37019      0.04056      0.19538  1.0000
  O2          0.76733      0.30091      0.01140  1.0000
  O2          0.69116      0.46534      0.34285  1.0000
  O2          0.52593      0.22095      0.67656  1.0000
  O2          0.22298      0.69286      0.50947  1.0000
  O2          0.29301      0.52587      0.84648  1.0000
  O2          0.46325      0.76687      0.17741  1.0000
  O2          0.30011      0.76945      0.32219  1.0000
  O2          0.46740      0.69631      0.98921  1.0000
  O2          0.22177      0.52975      0.65434  1.0000
  O2          0.69292      0.22671      0.82093  1.0000
  O2          0.52892      0.30268      0.48774  1.0000
  O2          0.76947      0.46125      0.15685  1.0000
  O2          0.78237      0.53097      0.02974  1.0000
  O2          0.46010      0.24865      0.35985  1.0000
  O2          0.74475      0.20923      0.69460  1.0000
  O2          0.20908      0.46171      0.52626  1.0000
  O2          0.52403      0.74113      0.86101  1.0000
  O2          0.24664      0.78162      0.19435  1.0000
  O2          0.53124      0.78355      0.30538  1.0000
  O2          0.25055      0.46723      0.97295  1.0000
  O2          0.20715      0.74556      0.63697  1.0000
  O2          0.46317      0.21045      0.80392  1.0000
  O2          0.74514      0.53359      0.47072  1.0000
  O2          0.78219      0.24384      0.13719  1.0000
  O2          0.22413      0.31706      0.90030  1.0000
  O2          0.67254      0.90573      0.23160  1.0000
  O2          0.08242      0.76222      0.56305  1.0000
  O2          0.76219      0.67497      0.39705  1.0000
  O2          0.31833      0.08551      0.73117  1.0000
  O2          0.90967      0.22846      0.06336  1.0000
  O2          0.31907      0.23122      0.43376  1.0000
  O2          0.90754      0.67133      0.10372  1.0000
  O2          0.76385      0.08477      0.76877  1.0000
  O2          0.67199      0.76648      0.93379  1.0000
  O2          0.08507      0.32041      0.59981  1.0000
  O2          0.22918      0.90724      0.26807  1.0000
  O2          0.59216      0.55962      0.98882  1.0000
  O2          0.43793      0.02777      0.32357  1.0000
  O2          0.96278      0.40848      0.65503  1.0000
  O2          0.40814      0.44047      0.48939  1.0000
  O2          0.55363      0.96343      0.82326  1.0000
  O2          0.02669      0.58121      0.15832  1.0000
  O2          0.55322      0.58578      0.34174  1.0000
  O2          0.02800      0.44011      0.00930  1.0000
  O2          0.40466      0.96365      0.67615  1.0000
  O2          0.42979      0.39969      0.84423  1.0000
  O2          0.96497      0.55427      0.50733  1.0000
  O2          0.58370      0.02534      0.17603  1.0000
  O2          0.57863      0.16318      0.24966  1.0000
  O2          0.82693      0.41305      0.58106  1.0000
  O2          0.57931      0.40881      0.91628  1.0000
  O2          0.41334      0.82534      0.74920  1.0000
  O2          0.16423      0.57819      0.08406  1.0000
  O2          0.41224      0.58148      0.41578  1.0000
  F           0.44866      0.90225      0.24972  1.0000
  F           0.08792      0.54314      0.58159  1.0000
  F           0.44733      0.54277      0.91691  1.0000
  F           0.54441      0.08847      0.74977  1.0000
  F           0.90313      0.44651      0.08347  1.0000
  F           0.54280      0.45071      0.41541  1.0000
