data_cif

_audit_creation_method             'generated by GULP'

_symmetry_space_group_name_H-M     'P 1'
_symmetry_Int_Tables_number        1
_symmetry_cell_setting             triclinic

_cell_length_a                       11.9806
_cell_length_b                       11.9974
_cell_length_c                       29.4685
_cell_angle_alpha                   90.1691
_cell_angle_beta                    89.9630
_cell_angle_gamma                  119.8776

loop_
_atom_site_label
_atom_site_fract_x
_atom_site_fract_y
_atom_site_fract_z
_atom_site_occupancy
  Si          0.69960      0.37570      0.03389  1.0000
  Si          0.61401      0.32113      0.36513  1.0000
  Si          0.67058      0.29232      0.69933  1.0000
  Si          0.29286      0.62303      0.53207  1.0000
  Si          0.37591      0.67272      0.86709  1.0000
  Si          0.32112      0.69919      0.19899  1.0000
  Si          0.37530      0.69995      0.29986  1.0000
  Si          0.32248      0.61920      0.96771  1.0000
  Si          0.29214      0.67280      0.63336  1.0000
  Si          0.62125      0.29349      0.80053  1.0000
  Si          0.67372      0.38017      0.46527  1.0000
  Si          0.70113      0.31901      0.13407  1.0000
  Si          0.53149      0.41505      0.96762  1.0000
  Si          0.57846      0.11043      0.30030  1.0000
  Si          0.87941      0.46566      0.63396  1.0000
  Si          0.46415      0.58448      0.46648  1.0000
  Si          0.41679      0.88041      0.80082  1.0000
  Si          0.11100      0.52466      0.13445  1.0000
  Si          0.41024      0.52661      0.36497  1.0000
  Si          0.11196      0.57920      0.03295  1.0000
  Si          0.46468      0.88209      0.69880  1.0000
  Si          0.58088      0.46395      0.86586  1.0000
  Si          0.88111      0.41991      0.53186  1.0000
  Si          0.52685      0.10900      0.19852  1.0000
  Si          0.30049      0.39556      0.85222  1.0000
  Si          0.59848      0.90042      0.18478  1.0000
  Si          0.09041      0.69960      0.51916  1.0000
  Si          0.69023      0.59861      0.34957  1.0000
  Si          0.39161      0.09107      0.68599  1.0000
  Si          0.90144      0.30091      0.01812  1.0000
  Si          0.39797      0.30674      0.48123  1.0000
  Si          0.90239      0.59626      0.14967  1.0000
  Si          0.69635      0.09104      0.81420  1.0000
  Si          0.60034      0.69413      0.98209  1.0000
  Si          0.09040      0.39547      0.64673  1.0000
  Si          0.29895      0.90163      0.31374  1.0000
  Si          0.25365      0.33951      0.95288  1.0000
  Si          0.65576      0.90898      0.28550  1.0000
  Si          0.08199      0.74359      0.62041  1.0000
  Si          0.74131      0.65853      0.45014  1.0000
  Si          0.34179      0.08322      0.78725  1.0000
  Si          0.91029      0.24682      0.11823  1.0000
  Si          0.33280      0.24869      0.38133  1.0000
  Si          0.90950      0.65425      0.04913  1.0000
  Si          0.74321      0.08409      0.71318  1.0000
  Si          0.65504      0.74123      0.88131  1.0000
  Si          0.08327      0.34363      0.54575  1.0000
  Si          0.24866      0.90798      0.21311  1.0000
  Ge          0.97087      0.11869      0.96737  1.0000
  Si          0.87327      0.84632      0.29981  1.0000
  Si          0.14441      0.02130      0.63348  1.0000
  Si          0.02065      0.87465      0.46537  1.0000
  Ge          0.12092      0.14567      0.79922  1.0000
  Si          0.84640      0.96689      0.13427  1.0000
  Si          0.11706      0.96747      0.36467  1.0000
  Si          0.84693      0.87103      0.03365  1.0000
  Si          0.02263      0.14669      0.69616  1.0000
  Si          0.87235      0.01835      0.86435  1.0000
  Ge          0.14687      0.12231      0.53090  1.0000
  Si          0.96830      0.84511      0.19917  1.0000
  O3          0.93032      0.98903      0.00153  1.0000
  O2          0.99561      0.92650      0.33200  1.0000
  O2          0.06070      0.06866      0.66116  1.0000
  O3          0.05661      0.99954      0.49387  1.0000
  O3          0.98447      0.05052      0.82926  1.0000
  O2          0.92578      0.92419      0.16666  1.0000
  O2          0.33504      0.57656      0.33232  1.0000
  O2          0.41549      0.75742      0.66594  1.0000
  O2          0.23760      0.65663      0.00078  1.0000
  O2          0.65851      0.41636      0.83327  1.0000
  O2          0.57781      0.23465      0.16642  1.0000
  O2          0.75820      0.34340      0.49848  1.0000
  O2          0.57812      0.33814      0.00064  1.0000
  O2          0.75397      0.41481      0.66647  1.0000
  O2          0.65270      0.23640      0.33254  1.0000
  O2          0.41519      0.66155      0.49886  1.0000
  O2          0.23692      0.57496      0.16673  1.0000
  O2          0.33916      0.75669      0.83359  1.0000
  O3          0.13397      0.21655      0.97496  1.0000
  O2          0.78256      0.90980      0.30541  1.0000
  O2          0.08276      0.86839      0.64218  1.0000
  O2          0.86699      0.78309      0.47025  1.0000
  O3          0.21903      0.08164      0.80921  1.0000
  O2          0.91059      0.12119      0.13851  1.0000
  O2          0.20639      0.12210      0.36166  1.0000
  O2          0.90897      0.77917      0.02925  1.0000
  O2          0.86821      0.08394      0.69227  1.0000
  O2          0.77871      0.86491      0.86032  1.0000
  O3          0.07922      0.21850      0.52501  1.0000
  O2          0.12220      0.90813      0.19334  1.0000
  O2          0.92754      0.85928      0.24947  1.0000
  O3          0.13243      0.04935      0.58188  1.0000
  O3          0.93463      0.06120      0.91320  1.0000
  O3          0.07088      0.13105      0.74421  1.0000
  O2          0.85749      0.92501      0.08397  1.0000
  O2          0.06265      0.91916      0.41420  1.0000
  O3          0.89475      0.20466      0.97880  1.0000
  O2          0.78925      0.69490      0.31144  1.0000
  O2          0.29464      0.09348      0.64802  1.0000
  O2          0.09363      0.79888      0.48133  1.0000
  O3          0.20321      0.30598      0.81323  1.0000
  O2          0.69556      0.89890      0.14666  1.0000
  O2          0.20079      0.90072      0.35176  1.0000
  O2          0.69589      0.79201      0.02057  1.0000
  O2          0.09071      0.29850      0.68492  1.0000
  O2          0.79315      0.09188      0.85288  1.0000
  O3          0.30906      0.21249      0.52071  1.0000
  O2          0.90037      0.69334      0.18784  1.0000
  O2          0.32013      0.64307      0.24940  1.0000
  O2          0.34958      0.67588      0.58281  1.0000
  O2          0.32141      0.67626      0.91756  1.0000
  O2          0.67467      0.35005      0.74994  1.0000
  O2          0.64269      0.31996      0.08417  1.0000
  O2          0.67401      0.32300      0.41501  1.0000
  O2          0.37637      0.32953      0.97049  1.0000
  O2          0.66574      0.04148      0.30376  1.0000
  O2          0.94946      0.62136      0.63824  1.0000
  O2          0.62023      0.67063      0.46879  1.0000
  O2          0.33111      0.95012      0.80426  1.0000
  O2          0.04220      0.36872      0.13710  1.0000
  O2          0.32279      0.37058      0.36240  1.0000
  O2          0.04218      0.66554      0.03049  1.0000
  O2          0.62065      0.95188      0.69509  1.0000
  O2          0.66608      0.61957      0.86297  1.0000
  O2          0.95033      0.33379      0.52851  1.0000
  O2          0.37078      0.04022      0.19490  1.0000
  O2          0.76732      0.30066      0.01168  1.0000
  O2          0.68757      0.46336      0.34234  1.0000
  O2          0.52620      0.22382      0.67800  1.0000
  O2          0.22412      0.69907      0.51123  1.0000
  O2          0.30061      0.52954      0.84551  1.0000
  O2          0.46455      0.76714      0.17693  1.0000
  O2          0.30006      0.76865      0.32171  1.0000
  O2          0.46590      0.69309      0.98980  1.0000
  O2          0.22373      0.52931      0.65509  1.0000
  O2          0.69691      0.22514      0.82217  1.0000
  O2          0.53160      0.30601      0.48766  1.0000
  O2          0.76995      0.46146      0.15699  1.0000
  O2          0.78257      0.53081      0.02944  1.0000
  O2          0.45780      0.24640      0.36188  1.0000
  O2          0.74387      0.21008      0.69388  1.0000
  O2          0.21017      0.46809      0.52631  1.0000
  O2          0.53093      0.74443      0.86209  1.0000
  O2          0.24775      0.78167      0.19361  1.0000
  O2          0.53103      0.78283      0.30503  1.0000
  O2          0.24956      0.46404      0.97174  1.0000
  O2          0.20904      0.74503      0.63918  1.0000
  O2          0.46645      0.21063      0.80633  1.0000
  O2          0.74537      0.53532      0.46962  1.0000
  O2          0.78295      0.24457      0.13749  1.0000
  O2          0.22903      0.31796      0.89835  1.0000
  O2          0.67307      0.90593      0.23124  1.0000
  O2          0.08495      0.76661      0.56623  1.0000
  O2          0.75937      0.67419      0.39583  1.0000
  O2          0.32009      0.08829      0.73301  1.0000
  O2          0.91005      0.22859      0.06366  1.0000
  O2          0.31612      0.23247      0.43591  1.0000
  O2          0.90741      0.67087      0.10345  1.0000
  O2          0.76610      0.08755      0.76745  1.0000
  O2          0.67404      0.76371      0.93561  1.0000
  O2          0.08882      0.32312      0.60000  1.0000
  O2          0.22910      0.90605      0.26735  1.0000
  O2          0.58887      0.55623      0.99052  1.0000
  O2          0.43739      0.02687      0.32306  1.0000
  O2          0.96370      0.40723      0.65564  1.0000
  O2          0.40949      0.44503      0.49007  1.0000
  O2          0.55856      0.96480      0.82315  1.0000
  O2          0.02733      0.58151      0.15815  1.0000
  O2          0.55029      0.58320      0.34112  1.0000
  O2          0.02780      0.43913      0.00930  1.0000
  O2          0.40517      0.96549      0.67703  1.0000
  O2          0.43888      0.40649      0.84342  1.0000
  O2          0.96470      0.56171      0.50974  1.0000
  O2          0.58454      0.02534      0.17555  1.0000
  O2          0.57902      0.16255      0.24938  1.0000
  O2          0.82642      0.41733      0.58270  1.0000
  O2          0.58382      0.41316      0.91678  1.0000
  O2          0.41504      0.82756      0.74973  1.0000
  O2          0.16440      0.57797      0.08375  1.0000
  O2          0.41030      0.58175      0.41555  1.0000
  F           0.44910      0.90208      0.24925  1.0000
  F           0.08944      0.54562      0.58302  1.0000
  F           0.44988      0.54262      0.91696  1.0000
  F           0.54485      0.09040      0.75017  1.0000
  F           0.90346      0.44675      0.08355  1.0000
  F           0.53965      0.44989      0.41574  1.0000
