data_cif

_audit_creation_method             'generated by GULP'

_symmetry_space_group_name_H-M     'P 1'
_symmetry_Int_Tables_number        1
_symmetry_cell_setting             triclinic

_cell_length_a                       11.9991
_cell_length_b                       11.9933
_cell_length_c                       29.4748
_cell_angle_alpha                   90.2503
_cell_angle_beta                    89.9529
_cell_angle_gamma                  120.0173

loop_
_atom_site_label
_atom_site_fract_x
_atom_site_fract_y
_atom_site_fract_z
_atom_site_occupancy
  Si          0.69960      0.37570      0.03389  1.0000
  Si          0.61459      0.31913      0.36639  1.0000
  Si          0.66874      0.28899      0.69897  1.0000
  Si          0.28957      0.61295      0.53285  1.0000
  Si          0.37341      0.67002      0.86714  1.0000
  Si          0.32299      0.69338      0.20004  1.0000
  Si          0.37274      0.69611      0.30133  1.0000
  Si          0.32104      0.61746      0.96792  1.0000
  Si          0.28833      0.66839      0.63355  1.0000
  Si          0.61998      0.29109      0.80013  1.0000
  Si          0.67085      0.37452      0.46700  1.0000
  Si          0.69974      0.31406      0.13346  1.0000
  Si          0.53045      0.41295      0.96711  1.0000
  Si          0.57692      0.10758      0.30167  1.0000
  Si          0.87783      0.46155      0.63375  1.0000
  Si          0.46416      0.57788      0.46785  1.0000
  Si          0.41480      0.87789      0.80099  1.0000
  Si          0.11292      0.52239      0.13483  1.0000
  Si          0.41083      0.52465      0.36610  1.0000
  Si          0.11244      0.57996      0.03368  1.0000
  Si          0.46161      0.87849      0.69898  1.0000
  Si          0.57870      0.46121      0.86531  1.0000
  Si          0.87998      0.40930      0.53197  1.0000
  Si          0.53135      0.10626      0.19966  1.0000
  Si          0.29846      0.39280      0.85203  1.0000
  Si          0.60101      0.89583      0.18733  1.0000
  Si          0.08837      0.68934      0.51816  1.0000
  Si          0.69084      0.59634      0.35166  1.0000
  Si          0.38925      0.08770      0.68605  1.0000
  Si          0.90206      0.30175      0.01710  1.0000
  Si          0.39322      0.29797      0.48152  1.0000
  Si          0.90231      0.58988      0.15123  1.0000
  Si          0.69485      0.08882      0.81398  1.0000
  Si          0.59912      0.69219      0.98136  1.0000
  Si          0.08694      0.39113      0.64785  1.0000
  Si          0.29559      0.89769      0.31429  1.0000
  Si          0.25279      0.33762      0.95270  1.0000
  Si          0.65352      0.90519      0.28843  1.0000
  Si          0.07951      0.73981      0.61878  1.0000
  Si          0.74243      0.65508      0.45236  1.0000
  Si          0.34006      0.08072      0.78730  1.0000
  Si          0.91033      0.24572      0.11692  1.0000
  Si          0.33403      0.24644      0.38099  1.0000
  Si          0.91036      0.65449      0.05139  1.0000
  Si          0.74066      0.08036      0.71293  1.0000
  Si          0.65264      0.73887      0.88062  1.0000
  Si          0.08097      0.33204      0.54729  1.0000
  Si          0.25339      0.90395      0.21307  1.0000
  Ge          0.96960      0.11697      0.96726  1.0000
  Si          0.87139      0.84579      0.30295  1.0000
  Si          0.14336      0.02039      0.63275  1.0000
  Si          0.02348      0.87124      0.46745  1.0000
  Ge          0.11892      0.14235      0.79908  1.0000
  Si          0.84655      0.96649      0.13423  1.0000
  Si          0.11695      0.96582      0.36668  1.0000
  Si          0.84550      0.86946      0.03365  1.0000
  Si          0.01938      0.14158      0.69626  1.0000
  Si          0.87029      0.01615      0.86421  1.0000
  Si          0.14626      0.11575      0.53203  1.0000
  Ge          0.97030      0.84286      0.20031  1.0000
  O3          0.92981      0.98770      0.00159  1.0000
  O2          0.99194      0.92356      0.33626  1.0000
  O2          0.05803      0.06342      0.66135  1.0000
  O2          0.06530      0.99404      0.49950  1.0000
  O3          0.98369      0.04834      0.82983  1.0000
  O3          0.93315      0.93169      0.16459  1.0000
  O2          0.33374      0.57345      0.33406  1.0000
  O2          0.41142      0.75344      0.66618  1.0000
  O2          0.23784      0.65647      0.00123  1.0000
  O2          0.65690      0.41439      0.83275  1.0000
  O2          0.57875      0.22935      0.16656  1.0000
  O2          0.75469      0.33470      0.49934  1.0000
  O2          0.57899      0.33814      0.00025  1.0000
  O2          0.75185      0.41130      0.66594  1.0000
  O2          0.65243      0.23338      0.33401  1.0000
  O2          0.41335      0.65254      0.50047  1.0000
  O2          0.23867      0.56999      0.16714  1.0000
  O2          0.33681      0.75435      0.83386  1.0000
  O3          0.13288      0.21437      0.97469  1.0000
  O2          0.77845      0.90632      0.30992  1.0000
  O2          0.07975      0.86644      0.63864  1.0000
  O2          0.86914      0.78180      0.47200  1.0000
  O3          0.21748      0.07914      0.80921  1.0000
  O2          0.90897      0.12058      0.13749  1.0000
  O2          0.20768      0.11980      0.36117  1.0000
  O2          0.90949      0.77912      0.03141  1.0000
  O2          0.86510      0.07915      0.69205  1.0000
  O2          0.77581      0.86265      0.85938  1.0000
  O2          0.08125      0.20521      0.52789  1.0000
  O3          0.13281      0.90703      0.19162  1.0000
  O3          0.92826      0.86766      0.25326  1.0000
  O2          0.13907      0.06041      0.58159  1.0000
  O3          0.93029      0.05691      0.91345  1.0000
  O3          0.06655      0.12421      0.74427  1.0000
  O2          0.85009      0.92268      0.08349  1.0000
  O2          0.06872      0.92483      0.41746  1.0000
  O3          0.89552      0.20550      0.97778  1.0000
  O2          0.78906      0.69292      0.31334  1.0000
  O2          0.29228      0.08979      0.64816  1.0000
  O2          0.09051      0.78765      0.48002  1.0000
  O3          0.20132      0.30314      0.81290  1.0000
  O2          0.69755      0.89343      0.14949  1.0000
  O2          0.19691      0.89613      0.35227  1.0000
  O2          0.69543      0.78987      0.01962  1.0000
  O2          0.08751      0.29423      0.68605  1.0000
  O2          0.79231      0.09055      0.85250  1.0000
  O2          0.29693      0.19980      0.51963  1.0000
  O3          0.89615      0.67959      0.19070  1.0000
  O2          0.31938      0.63767      0.25076  1.0000
  O2          0.34596      0.66898      0.58334  1.0000
  O2          0.31964      0.67384      0.91771  1.0000
  O2          0.67336      0.34736      0.74954  1.0000
  O2          0.64122      0.31595      0.08368  1.0000
  O2          0.67155      0.31855      0.41654  1.0000
  O2          0.37529      0.32737      0.97032  1.0000
  O2          0.66290      0.03788      0.30596  1.0000
  O2          0.94691      0.61779      0.63700  1.0000
  O2          0.62032      0.66525      0.47095  1.0000
  O2          0.32935      0.94764      0.80434  1.0000
  O2          0.04277      0.36626      0.13627  1.0000
  O2          0.32364      0.36848      0.36283  1.0000
  O2          0.04277      0.66638      0.03208  1.0000
  O2          0.61744      0.94798      0.69504  1.0000
  O2          0.66369      0.61707      0.86244  1.0000
  O2          0.94867      0.32183      0.52874  1.0000
  O2          0.37626      0.03675      0.19594  1.0000
  O2          0.76877      0.30289      0.01110  1.0000
  O2          0.68977      0.46190      0.34391  1.0000
  O2          0.52413      0.22024      0.67786  1.0000
  O2          0.22162      0.68816      0.51074  1.0000
  O2          0.29792      0.52655      0.84553  1.0000
  O2          0.46748      0.76184      0.17904  1.0000
  O2          0.29680      0.76468      0.32255  1.0000
  O2          0.46501      0.69110      0.98956  1.0000
  O2          0.22024      0.52541      0.65584  1.0000
  O2          0.69579      0.22325      0.82185  1.0000
  O2          0.52763      0.29939      0.48911  1.0000
  O2          0.76867      0.45548      0.15683  1.0000
  O2          0.78219      0.53143      0.03171  1.0000
  O2          0.45890      0.24518      0.36133  1.0000
  O2          0.74159      0.20639      0.69353  1.0000
  O2          0.20727      0.45705      0.52780  1.0000
  O2          0.52820      0.74151      0.86173  1.0000
  O2          0.25117      0.77643      0.19398  1.0000
  O2          0.52792      0.77904      0.30742  1.0000
  O2          0.24843      0.46200      0.97181  1.0000
  O2          0.20589      0.74166      0.63841  1.0000
  O2          0.46524      0.20833      0.80620  1.0000
  O2          0.74412      0.53041      0.47192  1.0000
  O2          0.78192      0.24068      0.13595  1.0000
  O2          0.22740      0.31522      0.89820  1.0000
  O2          0.67341      0.90035      0.23426  1.0000
  O2          0.08215      0.75870      0.56452  1.0000
  O2          0.76083      0.67149      0.39805  1.0000
  O2          0.31823      0.08557      0.73306  1.0000
  O2          0.91085      0.22878      0.06234  1.0000
  O2          0.31780      0.22782      0.43525  1.0000
  O2          0.91070      0.67154      0.10600  1.0000
  O2          0.76393      0.08457      0.76719  1.0000
  O2          0.67211      0.76194      0.93486  1.0000
  O2          0.08252      0.31584      0.60157  1.0000
  O2          0.22637      0.89936      0.26731  1.0000
  O2          0.58842      0.55461      0.98974  1.0000
  O2          0.43396      0.02423      0.32324  1.0000
  O2          0.96187      0.40509      0.65691  1.0000
  O2          0.40733      0.43707      0.49075  1.0000
  O2          0.55686      0.96265      0.82319  1.0000
  O2          0.02838      0.57685      0.15931  1.0000
  O2          0.55142      0.58162      0.34273  1.0000
  O2          0.02820      0.44084      0.00916  1.0000
  O2          0.40181      0.96149      0.67731  1.0000
  O2          0.43660      0.40370      0.84300  1.0000
  O2          0.96372      0.55002      0.50894  1.0000
  O2          0.58995      0.02219      0.17788  1.0000
  O2          0.58200      0.16085      0.25059  1.0000
  O2          0.82612      0.40887      0.58272  1.0000
  O2          0.58170      0.41021      0.91618  1.0000
  O2          0.41252      0.82431      0.74997  1.0000
  O2          0.16581      0.57792      0.08425  1.0000
  O2          0.41136      0.57786      0.41702  1.0000
  F           0.44886      0.89770      0.25063  1.0000
  F           0.08700      0.53927      0.58312  1.0000
  F           0.44776      0.53952      0.91667  1.0000
  F           0.54305      0.08755      0.75012  1.0000
  F           0.90476      0.44754      0.08405  1.0000
  F           0.54189      0.44746      0.41656  1.0000
