data_cif

_audit_creation_method             'generated by GULP'

_symmetry_space_group_name_H-M     'P 1'
_symmetry_Int_Tables_number        1
_symmetry_cell_setting             triclinic

_cell_length_a                       11.9470
_cell_length_b                       11.9622
_cell_length_c                       29.4290
_cell_angle_alpha                   90.0931
_cell_angle_beta                    89.9837
_cell_angle_gamma                  119.9403

loop_
_atom_site_label
_atom_site_fract_x
_atom_site_fract_y
_atom_site_fract_z
_atom_site_occupancy
  Si          0.69960      0.37570      0.03389  1.0000
  Si          0.61721      0.31950      0.36623  1.0000
  Si          0.67234      0.29158      0.69913  1.0000
  Si          0.29222      0.61613      0.53234  1.0000
  Si          0.37369      0.67028      0.86541  1.0000
  Si          0.32083      0.69787      0.19946  1.0000
  Si          0.37505      0.69799      0.30033  1.0000
  Si          0.32387      0.62213      0.96668  1.0000
  Si          0.29308      0.67144      0.63311  1.0000
  Si          0.61685      0.29063      0.79985  1.0000
  Si          0.67168      0.37490      0.46692  1.0000
  Si          0.70145      0.31846      0.13410  1.0000
  Si          0.53296      0.41732      0.96733  1.0000
  Si          0.57969      0.10896      0.30138  1.0000
  Si          0.88174      0.46485      0.63394  1.0000
  Si          0.46461      0.57851      0.46711  1.0000
  Si          0.41236      0.87981      0.80013  1.0000
  Si          0.11229      0.52491      0.13385  1.0000
  Si          0.41251      0.52558      0.36532  1.0000
  Si          0.11364      0.58080      0.03229  1.0000
  Si          0.46600      0.88102      0.69834  1.0000
  Si          0.57894      0.46294      0.86526  1.0000
  Si          0.88152      0.41236      0.53212  1.0000
  Si          0.52818      0.10938      0.19957  1.0000
  Si          0.29652      0.39114      0.85216  1.0000
  Si          0.59930      0.89987      0.18550  1.0000
  Si          0.09046      0.69289      0.51780  1.0000
  Si          0.69372      0.59729      0.35126  1.0000
  Si          0.39397      0.09001      0.68408  1.0000
  Si          0.90197      0.30147      0.01725  1.0000
  Si          0.39316      0.29795      0.48144  1.0000
  Si          0.90347      0.59685      0.14956  1.0000
  Si          0.69323      0.08902      0.81470  1.0000
  Si          0.60271      0.69811      0.98005  1.0000
  Si          0.09155      0.39364      0.64776  1.0000
  Si          0.29878      0.89982      0.31526  1.0000
  Si          0.25423      0.34168      0.95343  1.0000
  Si          0.65660      0.90702      0.28621  1.0000
  Si          0.08335      0.74332      0.61862  1.0000
  Si          0.74372      0.65587      0.45204  1.0000
  Si          0.33578      0.08187      0.78483  1.0000
  Si          0.91096      0.24643      0.11743  1.0000
  Si          0.33553      0.24708      0.38065  1.0000
  Si          0.91030      0.65510      0.04896  1.0000
  Si          0.74472      0.08256      0.71394  1.0000
  Si          0.65527      0.74206      0.87885  1.0000
  Si          0.08336      0.33505      0.54705  1.0000
  Si          0.24933      0.90766      0.21445  1.0000
  Ge          0.97127      0.11905      0.96684  1.0000
  Si          0.87460      0.84478      0.30079  1.0000
  Si          0.14631      0.02355      0.63317  1.0000
  Si          0.02375      0.87371      0.46700  1.0000
  Si          0.11822      0.14460      0.79945  1.0000
  Si          0.84678      0.96590      0.13440  1.0000
  Si          0.11799      0.96698      0.36602  1.0000
  Si          0.84836      0.87245      0.03336  1.0000
  Si          0.02566      0.14638      0.69837  1.0000
  Si          0.87360      0.01940      0.86377  1.0000
  Si          0.14563      0.11709      0.53219  1.0000
  Si          0.96907      0.84512      0.19983  1.0000
  O3          0.93531      0.99374      0.00293  1.0000
  O2          0.99608      0.92464      0.33348  1.0000
  O2          0.06631      0.06612      0.66543  1.0000
  O2          0.06546      0.99544      0.49959  1.0000
  O2          0.99323      0.06159      0.82999  1.0000
  O2          0.92695      0.92498      0.16735  1.0000
  O2          0.33585      0.57439      0.33281  1.0000
  O2          0.41683      0.75570      0.66571  1.0000
  O2          0.23913      0.65997      0.99987  1.0000
  O2          0.65492      0.41365      0.83261  1.0000
  O2          0.57884      0.23489      0.16712  1.0000
  O2          0.75579      0.33585      0.49972  1.0000
  O2          0.57814      0.33937      0.00061  1.0000
  O2          0.75632      0.41511      0.66656  1.0000
  O2          0.65634      0.23462      0.33378  1.0000
  O2          0.41542      0.65511      0.49954  1.0000
  O2          0.23773      0.57453      0.16656  1.0000
  O2          0.33470      0.75402      0.83235  1.0000
  O3          0.13426      0.21794      0.97527  1.0000
  O2          0.78327      0.90775      0.30644  1.0000
  O2          0.08272      0.86940      0.63875  1.0000
  O2          0.86936      0.78286      0.47219  1.0000
  O2          0.20943      0.08156      0.80515  1.0000
  O2          0.91185      0.12079      0.13772  1.0000
  O2          0.20888      0.12110      0.36050  1.0000
  O2          0.90937      0.77957      0.02850  1.0000
  O2          0.87099      0.08210      0.69389  1.0000
  O2          0.78029      0.86569      0.85710  1.0000
  O2          0.08215      0.20803      0.52696  1.0000
  O2          0.12345      0.90875      0.19430  1.0000
  O2          0.92840      0.85837      0.25030  1.0000
  O2          0.13349      0.06350      0.58259  1.0000
  O3          0.93098      0.05417      0.91352  1.0000
  O2          0.07046      0.13620      0.74839  1.0000
  O2          0.85519      0.92019      0.08445  1.0000
  O2          0.06481      0.92715      0.41656  1.0000
  O3          0.89508      0.20585      0.97750  1.0000
  O2          0.79221      0.69315      0.31275  1.0000
  O2          0.29798      0.09234      0.64547  1.0000
  O2          0.09269      0.79108      0.47929  1.0000
  O2          0.19791      0.29467      0.81381  1.0000
  O2          0.69579      0.89835      0.14710  1.0000
  O2          0.20040      0.89764      0.35382  1.0000
  O2          0.69834      0.79706      0.01836  1.0000
  O2          0.09382      0.29764      0.68618  1.0000
  O2          0.79131      0.09057      0.85337  1.0000
  O2          0.29719      0.19974      0.51994  1.0000
  O2          0.90107      0.69315      0.18807  1.0000
  O2          0.31926      0.64072      0.24988  1.0000
  O2          0.35018      0.67245      0.58268  1.0000
  O2          0.31982      0.67504      0.91597  1.0000
  O2          0.67357      0.34866      0.74961  1.0000
  O2          0.64222      0.31897      0.08419  1.0000
  O2          0.67344      0.31854      0.41660  1.0000
  O2          0.37747      0.33162      0.97055  1.0000
  O2          0.66700      0.03978      0.30454  1.0000
  O2          0.95074      0.62117      0.63708  1.0000
  O2          0.62102      0.66600      0.47026  1.0000
  O2          0.32512      0.94912      0.80311  1.0000
  O2          0.04341      0.36854      0.13629  1.0000
  O2          0.32520      0.36929      0.36223  1.0000
  O2          0.04337      0.66698      0.03020  1.0000
  O2          0.62250      0.95002      0.69538  1.0000
  O2          0.66499      0.61890      0.86119  1.0000
  O2          0.95048      0.32487      0.52889  1.0000
  O2          0.37171      0.04036      0.19619  1.0000
  O2          0.76719      0.30082      0.01123  1.0000
  O2          0.69274      0.46265      0.34380  1.0000
  O2          0.52873      0.22350      0.67682  1.0000
  O2          0.22404      0.69164      0.51019  1.0000
  O2          0.29775      0.52575      0.84400  1.0000
  O2          0.46482      0.76652      0.17754  1.0000
  O2          0.29944      0.76604      0.32265  1.0000
  O2          0.46862      0.69841      0.98795  1.0000
  O2          0.22517      0.52812      0.65537  1.0000
  O2          0.69223      0.22264      0.82236  1.0000
  O2          0.52804      0.29940      0.48911  1.0000
  O2          0.77071      0.46148      0.15684  1.0000
  O2          0.78254      0.53127      0.02956  1.0000
  O2          0.46095      0.24554      0.36116  1.0000
  O2          0.74634      0.20927      0.69433  1.0000
  O2          0.20992      0.46004      0.52738  1.0000
  O2          0.52946      0.74319      0.85971  1.0000
  O2          0.24744      0.78080      0.19468  1.0000
  O2          0.53120      0.78034      0.30559  1.0000
  O2          0.25165      0.46692      0.97250  1.0000
  O2          0.21043      0.74510      0.63811  1.0000
  O2          0.46068      0.20854      0.80455  1.0000
  O2          0.74544      0.53101      0.47178  1.0000
  O2          0.78334      0.24368      0.13707  1.0000
  O2          0.22676      0.31955      0.89909  1.0000
  O2          0.67423      0.90442      0.23188  1.0000
  O2          0.08541      0.76288      0.56426  1.0000
  O2          0.76366      0.67267      0.39767  1.0000
  O2          0.31852      0.08451      0.73046  1.0000
  O2          0.91034      0.22825      0.06277  1.0000
  O2          0.31814      0.22768      0.43502  1.0000
  O2          0.90862      0.67219      0.10335  1.0000
  O2          0.76392      0.08447      0.76834  1.0000
  O2          0.67572      0.76673      0.93314  1.0000
  O2          0.08639      0.31821      0.60140  1.0000
  O2          0.22907      0.90517      0.26881  1.0000
  O2          0.59149      0.56012      0.98932  1.0000
  O2          0.43819      0.02512      0.32441  1.0000
  O2          0.96595      0.40748      0.65688  1.0000
  O2          0.40696      0.43735      0.49027  1.0000
  O2          0.55355      0.96372      0.82349  1.0000
  O2          0.02884      0.58208      0.15773  1.0000
  O2          0.55404      0.58306      0.34225  1.0000
  O2          0.02877      0.44040      0.00857  1.0000
  O2          0.40847      0.96483      0.67518  1.0000
  O2          0.43546      0.40305      0.84354  1.0000
  O2          0.96500      0.55349      0.50894  1.0000
  O2          0.58603      0.02566      0.17659  1.0000
  O2          0.58033      0.16249      0.25054  1.0000
  O2          0.82827      0.41210      0.58303  1.0000
  O2          0.58443      0.41424      0.91639  1.0000
  O2          0.41277      0.82726      0.74915  1.0000
  O2          0.16641      0.57907      0.08313  1.0000
  O2          0.41180      0.57864      0.41619  1.0000
  F           0.44948      0.90076      0.25028  1.0000
  F           0.09029      0.54270      0.58286  1.0000
  F           0.45036      0.54464      0.91617  1.0000
  F           0.54379      0.08909      0.74949  1.0000
  F           0.90423      0.44691      0.08317  1.0000
  F           0.54320      0.44795      0.41634  1.0000
