data_cif

_audit_creation_method             'generated by GULP'

_symmetry_space_group_name_H-M     'P 1'
_symmetry_Int_Tables_number        1
_symmetry_cell_setting             triclinic

_cell_length_a                       11.9745
_cell_length_b                       12.0007
_cell_length_c                       29.4362
_cell_angle_alpha                   90.2105
_cell_angle_beta                    90.5604
_cell_angle_gamma                  120.3637

loop_
_atom_site_label
_atom_site_fract_x
_atom_site_fract_y
_atom_site_fract_z
_atom_site_occupancy
  Ge          0.69960      0.37570      0.03389  1.0000
  Si          0.58867      0.28991      0.36739  1.0000
  Si          0.65307      0.27941      0.70064  1.0000
  Si          0.26291      0.59725      0.53175  1.0000
  Si          0.35827      0.66022      0.86466  1.0000
  Si          0.29617      0.68966      0.19985  1.0000
  Si          0.34564      0.67443      0.30194  1.0000
  Si          0.30592      0.60809      0.96493  1.0000
  Si          0.27111      0.65705      0.63253  1.0000
  Si          0.60087      0.27978      0.80123  1.0000
  Si          0.63959      0.35354      0.46907  1.0000
  Si          0.66505      0.30439      0.13167  1.0000
  Si          0.51672      0.40586      0.96793  1.0000
  Ge          0.53903      0.06993      0.30173  1.0000
  Si          0.86125      0.45071      0.63582  1.0000
  Si          0.43083      0.55571      0.46600  1.0000
  Si          0.39553      0.86946      0.79995  1.0000
  Si          0.08758      0.52005      0.13104  1.0000
  Si          0.38255      0.49704      0.36459  1.0000
  Si          0.09331      0.57420      0.02802  1.0000
  Si          0.44510      0.86891      0.69810  1.0000
  Si          0.56439      0.45472      0.86533  1.0000
  Si          0.85253      0.39339      0.53412  1.0000
  Si          0.50750      0.10903      0.20320  1.0000
  Si          0.28257      0.38287      0.85030  1.0000
  Si          0.57984      0.89615      0.18731  1.0000
  Si          0.06108      0.67389      0.51852  1.0000
  Si          0.66268      0.56809      0.35201  1.0000
  Si          0.37375      0.07780      0.68490  1.0000
  Si          0.88014      0.28532      0.01183  1.0000
  Si          0.36055      0.27668      0.48137  1.0000
  Si          0.87339      0.59023      0.14347  1.0000
  Si          0.67805      0.07928      0.81538  1.0000
  Si          0.58444      0.68685      0.98040  1.0000
  Si          0.07048      0.37918      0.64885  1.0000
  Si          0.26491      0.87455      0.32252  1.0000
  Si          0.23672      0.32881      0.95089  1.0000
  Si          0.63520      0.88881      0.28966  1.0000
  Si          0.06189      0.72916      0.61932  1.0000
  Si          0.70989      0.63296      0.45258  1.0000
  Si          0.31829      0.07031      0.78564  1.0000
  Si          0.88231      0.23716      0.11523  1.0000
  Si          0.30628      0.22016      0.38032  1.0000
  Si          0.89275      0.65841      0.04123  1.0000
  Si          0.72527      0.07133      0.71447  1.0000
  Si          0.63985      0.73321      0.87964  1.0000
  Si          0.05409      0.31636      0.54807  1.0000
  Si          0.22491      0.90126      0.21957  1.0000
  Si          0.95879      0.10985      0.96534  1.0000
  Si          0.84344      0.81191      0.30117  1.0000
  Si          0.12384      0.00933      0.63429  1.0000
  Si          0.98966      0.85233      0.46890  1.0000
  Si          0.10115      0.13249      0.79990  1.0000
  Si          0.82527      0.96095      0.13489  1.0000
  Si          0.08287      0.93839      0.36840  1.0000
  Si          0.83254      0.87426      0.03290  1.0000
  Si          0.00460      0.13227      0.69911  1.0000
  Si          0.85958      0.01113      0.86511  1.0000
  Si          0.11481      0.09829      0.53342  1.0000
  Si          0.94284      0.83442      0.19972  1.0000
  O2          0.91190      0.00043      0.00315  1.0000
  O2          0.96521      0.89622      0.33352  1.0000
  O2          0.04405      0.05084      0.66662  1.0000
  O2          0.03111      0.97324      0.50205  1.0000
  O2          0.98032      0.05386      0.83256  1.0000
  O2          0.90599      0.92309      0.16932  1.0000
  O2          0.30703      0.54642      0.33085  1.0000
  O2          0.39653      0.74399      0.66497  1.0000
  O2          0.22110      0.64748      0.99746  1.0000
  O2          0.64033      0.40406      0.83373  1.0000
  O2          0.55104      0.22547      0.16752  1.0000
  O2          0.72346      0.31603      0.50267  1.0000
  O3          0.56209      0.33080      0.99928  1.0000
  O2          0.73774      0.40330      0.66865  1.0000
  O3          0.62706      0.20581      0.33801  1.0000
  O2          0.38227      0.63355      0.49776  1.0000
  O2          0.21158      0.57121      0.16492  1.0000
  O2          0.31888      0.74367      0.83186  1.0000
  O2          0.11314      0.19942      0.97093  1.0000
  O2          0.75225      0.87201      0.30795  1.0000
  O2          0.06219      0.85537      0.63948  1.0000
  O2          0.83533      0.76072      0.47352  1.0000
  O2          0.19182      0.06941      0.80554  1.0000
  O2          0.88705      0.11590      0.13731  1.0000
  O2          0.18002      0.09060      0.36042  1.0000
  O2          0.90829      0.79592      0.02680  1.0000
  O2          0.85002      0.07025      0.69396  1.0000
  O2          0.76641      0.85734      0.85886  1.0000
  O2          0.05088      0.18826      0.52827  1.0000
  O2          0.09818      0.89872      0.19825  1.0000
  O2          0.89313      0.82858      0.25000  1.0000
  O2          0.10840      0.04893      0.58402  1.0000
  O2          0.91483      0.04490      0.91616  1.0000
  O2          0.04585      0.11812      0.74944  1.0000
  O2          0.83548      0.91580      0.08501  1.0000
  O2          0.02860      0.90843      0.41873  1.0000
  O2          0.89400      0.19695      0.97366  1.0000
  O2          0.76293      0.66060      0.31308  1.0000
  O2          0.27632      0.08000      0.64653  1.0000
  O2          0.05981      0.77071      0.48025  1.0000
  O2          0.18405      0.28460      0.81166  1.0000
  O2          0.67439      0.89485      0.14841  1.0000
  O2          0.15432      0.85705      0.35816  1.0000
  O2          0.68207      0.78754      0.01903  1.0000
  O2          0.07507      0.28398      0.68709  1.0000
  O2          0.77781      0.08146      0.85392  1.0000
  O2          0.26487      0.17978      0.51976  1.0000
  O2          0.87502      0.68737      0.18193  1.0000
  O2          0.29750      0.63227      0.24930  1.0000
  O2          0.32513      0.65638      0.58185  1.0000
  O2          0.30105      0.66248      0.91470  1.0000
  O2          0.65621      0.33723      0.75111  1.0000
  O3          0.60336      0.29860      0.08359  1.0000
  O2          0.63969      0.29523      0.41950  1.0000
  O2          0.35880      0.32020      0.96914  1.0000
  O3          0.65479      0.01862      0.31047  1.0000
  O2          0.93067      0.60717      0.63843  1.0000
  O2          0.58765      0.64399      0.46986  1.0000
  O2          0.30824      0.93790      0.80344  1.0000
  O2          0.01340      0.36447      0.13332  1.0000
  O2          0.29337      0.34055      0.36103  1.0000
  O2          0.02690      0.66314      0.02713  1.0000
  O2          0.60179      0.93860      0.69570  1.0000
  O2          0.64958      0.61104      0.86143  1.0000
  O2          0.92031      0.30559      0.53032  1.0000
  O2          0.34822      0.03233      0.20174  1.0000
  O3          0.74731      0.27840      0.00249  1.0000
  O2          0.66295      0.43512      0.34607  1.0000
  O2          0.50891      0.21152      0.67788  1.0000
  O2          0.19361      0.67201      0.51002  1.0000
  O2          0.28313      0.51650      0.84186  1.0000
  O2          0.44090      0.76532      0.17986  1.0000
  O2          0.26733      0.73977      0.32277  1.0000
  O2          0.45002      0.68695      0.98776  1.0000
  O2          0.20532      0.51464      0.65527  1.0000
  O2          0.67700      0.21243      0.82348  1.0000
  O2          0.49585      0.28083      0.49072  1.0000
  O2          0.74314      0.45388      0.15120  1.0000
  O3          0.76993      0.54377      0.01778  1.0000
  O2          0.43138      0.22066      0.36103  1.0000
  O2          0.72689      0.19782      0.69527  1.0000
  O2          0.17951      0.44074      0.52770  1.0000
  O2          0.51481      0.73550      0.86004  1.0000
  O2          0.22989      0.77757      0.20026  1.0000
  O2          0.50039      0.76469      0.30605  1.0000
  O2          0.23105      0.45207      0.97085  1.0000
  O2          0.19014      0.73153      0.63800  1.0000
  O2          0.44439      0.19701      0.80592  1.0000
  O2          0.71215      0.50983      0.47309  1.0000
  O2          0.75705      0.23901      0.13328  1.0000
  O2          0.21201      0.30982      0.89659  1.0000
  O2          0.64686      0.89260      0.23439  1.0000
  O2          0.06025      0.74617      0.56494  1.0000
  O2          0.73181      0.64850      0.39826  1.0000
  O2          0.29983      0.07265      0.73128  1.0000
  O2          0.88411      0.22283      0.06093  1.0000
  O2          0.28783      0.20305      0.43467  1.0000
  O2          0.87695      0.65860      0.09637  1.0000
  O2          0.74694      0.07472      0.76888  1.0000
  O2          0.65920      0.75535      0.93408  1.0000
  O2          0.06056      0.30189      0.60241  1.0000
  O2          0.20935      0.89472      0.27376  1.0000
  O2          0.56902      0.54869      0.99043  1.0000
  O3          0.39771      0.99555      0.33695  1.0000
  O2          0.94670      0.39464      0.65861  1.0000
  O2          0.37145      0.41497      0.48932  1.0000
  O2          0.53795      0.95353      0.82347  1.0000
  O2          0.99904      0.57496      0.15015  1.0000
  O2          0.52372      0.55565      0.34133  1.0000
  O2          0.00110      0.43223      0.00686  1.0000
  O2          0.38722      0.95266      0.67547  1.0000
  O2          0.42170      0.39613      0.84233  1.0000
  O2          0.93448      0.53365      0.51038  1.0000
  O2          0.56296      0.01982      0.18191  1.0000
  O3          0.56185      0.16731      0.25190  1.0000
  O2          0.80367      0.39490      0.58529  1.0000
  O2          0.56740      0.40825      0.91645  1.0000
  O2          0.39317      0.81606      0.74885  1.0000
  O2          0.13687      0.56811      0.08022  1.0000
  O2          0.37865      0.55434      0.41445  1.0000
  F           0.44690      0.92727      0.26238  1.0000
  F           0.06545      0.52655      0.58356  1.0000
  F           0.43004      0.53753      0.91553  1.0000
  F           0.52560      0.07854      0.75009  1.0000
  F           0.84440      0.42991      0.07130  1.0000
  F           0.50744      0.42757      0.41635  1.0000
