data_cif

_audit_creation_method             'generated by GULP'

_symmetry_space_group_name_H-M     'P 1'
_symmetry_Int_Tables_number        1
_symmetry_cell_setting             triclinic

_cell_length_a                       11.9138
_cell_length_b                       12.0024
_cell_length_c                       29.4560
_cell_angle_alpha                   90.2405
_cell_angle_beta                    89.9720
_cell_angle_gamma                  119.8740

loop_
_atom_site_label
_atom_site_fract_x
_atom_site_fract_y
_atom_site_fract_z
_atom_site_occupancy
  Ge          0.69960      0.37570      0.03389  1.0000
  Si          0.59655      0.30774      0.36224  1.0000
  Si          0.64949      0.28461      0.69426  1.0000
  Si          0.26830      0.60502      0.52683  1.0000
  Si          0.35942      0.66470      0.85704  1.0000
  Si          0.30210      0.69209      0.19406  1.0000
  Si          0.35231      0.68250      0.29448  1.0000
  Si          0.30772      0.60826      0.95935  1.0000
  Si          0.27244      0.66291      0.62755  1.0000
  Si          0.59896      0.29244      0.79612  1.0000
  Si          0.64979      0.36568      0.46264  1.0000
  Si          0.67143      0.30705      0.13198  1.0000
  Si          0.52278      0.40027      0.96395  1.0000
  Si          0.55892      0.09366      0.29988  1.0000
  Si          0.85996      0.45685      0.62942  1.0000
  Si          0.43914      0.56643      0.46064  1.0000
  Si          0.39499      0.87759      0.79403  1.0000
  Si          0.09393      0.51966      0.12746  1.0000
  Si          0.38996      0.50993      0.35886  1.0000
  Si          0.09394      0.57116      0.02448  1.0000
  Si          0.44390      0.87455      0.69265  1.0000
  Ge          0.55254      0.46213      0.86419  1.0000
  Si          0.86012      0.40392      0.52778  1.0000
  Si          0.50811      0.09829      0.19848  1.0000
  Si          0.27960      0.38284      0.83923  1.0000
  Si          0.58129      0.89259      0.18064  1.0000
  Si          0.06689      0.68275      0.51260  1.0000
  Si          0.67221      0.58286      0.34542  1.0000
  Si          0.37169      0.08219      0.67896  1.0000
  Si          0.88113      0.28495      0.00954  1.0000
  Si          0.36925      0.28701      0.47546  1.0000
  Si          0.87826      0.59089      0.14135  1.0000
  Si          0.67510      0.08771      0.80861  1.0000
  Si          0.59056      0.68681      0.97429  1.0000
  Si          0.07115      0.38566      0.64279  1.0000
  Si          0.27647      0.88387      0.31143  1.0000
  Si          0.24113      0.32563      0.94231  1.0000
  Si          0.63483      0.89249      0.28153  1.0000
  Si          0.06120      0.73434      0.61335  1.0000
  Si          0.71995      0.64463      0.44614  1.0000
  Si          0.31754      0.07817      0.77987  1.0000
  Si          0.88873      0.23910      0.11276  1.0000
  Si          0.31346      0.23304      0.37468  1.0000
  Si          0.89328      0.65704      0.03901  1.0000
  Si          0.72212      0.07630      0.70799  1.0000
  Si          0.64853      0.74029      0.87197  1.0000
  Si          0.06116      0.32534      0.54210  1.0000
  Si          0.22811      0.89785      0.21083  1.0000
  Si          0.96040      0.11223      0.95888  1.0000
  Si          0.85236      0.82940      0.29501  1.0000
  Si          0.12374      0.01383      0.62708  1.0000
  Si          0.99962      0.86286      0.46148  1.0000
  Si          0.09555      0.13720      0.79171  1.0000
  Si          0.82905      0.96194      0.12815  1.0000
  Si          0.09579      0.95270      0.36068  1.0000
  Si          0.83680      0.87545      0.02618  1.0000
  Si          0.00182      0.13660      0.69140  1.0000
  Si          0.85796      0.02332      0.85841  1.0000
  Si          0.12177      0.10634      0.52633  1.0000
  Si          0.94844      0.83831      0.19359  1.0000
  O2          0.91629      0.99472      0.99329  1.0000
  O2          0.97624      0.90948      0.32665  1.0000
  O2          0.04079      0.05757      0.65720  1.0000
  O2          0.04106      0.98609      0.49310  1.0000
  O2          0.97506      0.05936      0.82451  1.0000
  O2          0.91016      0.91949      0.16011  1.0000
  O2          0.31319      0.55785      0.32574  1.0000
  O2          0.39582      0.74894      0.66003  1.0000
  O2          0.22096      0.64330      0.99252  1.0000
  O3          0.63781      0.41042      0.82783  1.0000
  O2          0.56114      0.22892      0.16955  1.0000
  O2          0.73305      0.32715      0.49575  1.0000
  O3          0.55921      0.33117      0.00161  1.0000
  O2          0.73446      0.40792      0.66175  1.0000
  O2          0.63618      0.21888      0.33201  1.0000
  O2          0.38992      0.64286      0.49296  1.0000
  O2          0.21863      0.57071      0.16006  1.0000
  O2          0.32025      0.75165      0.82659  1.0000
  O2          0.11499      0.20149      0.96336  1.0000
  O2          0.76030      0.89116      0.30193  1.0000
  O2          0.06112      0.86050      0.63332  1.0000
  O2          0.84476      0.77223      0.46625  1.0000
  O2          0.19060      0.07932      0.79958  1.0000
  O2          0.89141      0.11577      0.13373  1.0000
  O2          0.18756      0.10596      0.35459  1.0000
  O2          0.91115      0.79443      0.02328  1.0000
  O2          0.84765      0.07589      0.68673  1.0000
  O2          0.76639      0.87173      0.85288  1.0000
  O2          0.05836      0.19745      0.52224  1.0000
  O2          0.10345      0.90167      0.19053  1.0000
  O2          0.90129      0.84522      0.24362  1.0000
  O2          0.11233      0.05026      0.57588  1.0000
  O2          0.91618      0.05862      0.90876  1.0000
  O2          0.04346      0.11740      0.74085  1.0000
  O2          0.84003      0.92630      0.07676  1.0000
  O2          0.03985      0.91456      0.41079  1.0000
  O2          0.89308      0.19497      0.97157  1.0000
  O2          0.77156      0.67821      0.30686  1.0000
  O2          0.27475      0.08441      0.64050  1.0000
  O2          0.06868      0.78082      0.47420  1.0000
  O2          0.16851      0.28897      0.80325  1.0000
  O2          0.67794      0.89253      0.14166  1.0000
  O2          0.17806      0.88190      0.34991  1.0000
  O2          0.68621      0.78663      0.01274  1.0000
  O2          0.07292      0.28884      0.68081  1.0000
  O2          0.77551      0.09319      0.84752  1.0000
  O2          0.27323      0.18960      0.51371  1.0000
  O2          0.88130      0.68842      0.18002  1.0000
  O2          0.29881      0.62944      0.24333  1.0000
  O2          0.32840      0.66249      0.57688  1.0000
  O2          0.30773      0.66019      0.90876  1.0000
  O2          0.64876      0.34071      0.74415  1.0000
  O3          0.60697      0.29833      0.08436  1.0000
  O2          0.65336      0.30948      0.41253  1.0000
  O2          0.36292      0.31657      0.96053  1.0000
  O2          0.64578      0.02378      0.30117  1.0000
  O2          0.92901      0.61272      0.63195  1.0000
  O2          0.59586      0.65427      0.46322  1.0000
  O2          0.30525      0.94418      0.79770  1.0000
  O2          0.02209      0.36440      0.12904  1.0000
  O2          0.30285      0.35413      0.35545  1.0000
  O2          0.02590      0.65875      0.02308  1.0000
  O2          0.60069      0.94391      0.68898  1.0000
  O3          0.66753      0.62813      0.85303  1.0000
  O2          0.92822      0.31581      0.52385  1.0000
  O2          0.35164      0.02969      0.19323  1.0000
  O3          0.74912      0.28095      0.00098  1.0000
  O2          0.67188      0.44850      0.33833  1.0000
  O2          0.50647      0.21464      0.67104  1.0000
  O2          0.20032      0.68060      0.50454  1.0000
  O2          0.28412      0.52092      0.83607  1.0000
  O2          0.44550      0.76112      0.17141  1.0000
  O2          0.27526      0.74911      0.31687  1.0000
  O2          0.45313      0.68369      0.97962  1.0000
  O2          0.20518      0.52001      0.64968  1.0000
  O2          0.67432      0.21984      0.81562  1.0000
  O2          0.50483      0.28996      0.48372  1.0000
  O2          0.74647      0.45707      0.14977  1.0000
  O3          0.76788      0.54347      0.01747  1.0000
  O2          0.43997      0.23145      0.35582  1.0000
  O2          0.72447      0.20332      0.68908  1.0000
  O2          0.18781      0.44923      0.52199  1.0000
  O2          0.51451      0.73103      0.85446  1.0000
  O2          0.22404      0.77075      0.19004  1.0000
  O2          0.50843      0.76583      0.29980  1.0000
  O2          0.24527      0.45466      0.96114  1.0000
  O2          0.18834      0.73501      0.63225  1.0000
  O2          0.44206      0.20133      0.80050  1.0000
  O2          0.72114      0.52114      0.46682  1.0000
  O2          0.76663      0.24491      0.13294  1.0000
  O2          0.22112      0.31302      0.88820  1.0000
  O2          0.65386      0.89298      0.22708  1.0000
  O2          0.06213      0.75278      0.55898  1.0000
  O2          0.74148      0.65902      0.39176  1.0000
  O2          0.29859      0.07987      0.72551  1.0000
  O2          0.88543      0.22296      0.05844  1.0000
  O2          0.29535      0.21582      0.42895  1.0000
  O2          0.88230      0.66041      0.09431  1.0000
  O2          0.74406      0.07888      0.76225  1.0000
  O2          0.66000      0.75264      0.92723  1.0000
  O2          0.06506      0.30998      0.59636  1.0000
  O2          0.20807      0.89337      0.26514  1.0000
  O2          0.56910      0.54652      0.98275  1.0000
  O2          0.41691      0.00586      0.32197  1.0000
  O2          0.94642      0.40143      0.65193  1.0000
  O2          0.38270      0.42598      0.48346  1.0000
  O2          0.53631      0.96057      0.81771  1.0000
  O2          0.00129      0.57053      0.14700  1.0000
  O2          0.53215      0.56849      0.33581  1.0000
  O2          0.00503      0.42937      0.00379  1.0000
  O2          0.38301      0.95544      0.66947  1.0000
  O3          0.41127      0.38979      0.82750  1.0000
  O2          0.94103      0.54376      0.50380  1.0000
  O2          0.56944      0.01964      0.17350  1.0000
  O2          0.55781      0.14746      0.24961  1.0000
  O2          0.80674      0.40375      0.57851  1.0000
  O3          0.57989      0.39774      0.91514  1.0000
  O2          0.39190      0.82018      0.74352  1.0000
  O2          0.14043      0.56780      0.07604  1.0000
  O2          0.38687      0.56387      0.40932  1.0000
  F           0.42670      0.88707      0.24453  1.0000
  F           0.06845      0.53295      0.57644  1.0000
  F           0.45922      0.51740      0.89981  1.0000
  F           0.51926      0.07540      0.74278  1.0000
  F           0.84730      0.43087      0.06918  1.0000
  F           0.52037      0.43478      0.40915  1.0000
