data_cif

_audit_creation_method             'generated by GULP'

_symmetry_space_group_name_H-M     'P 1'
_symmetry_Int_Tables_number        1
_symmetry_cell_setting             triclinic

_cell_length_a                       11.9159
_cell_length_b                       12.0428
_cell_length_c                       29.4523
_cell_angle_alpha                   90.3031
_cell_angle_beta                    89.9855
_cell_angle_gamma                  120.2427

loop_
_atom_site_label
_atom_site_fract_x
_atom_site_fract_y
_atom_site_fract_z
_atom_site_occupancy
  Ge          0.69960      0.37570      0.03389  1.0000
  Si          0.59248      0.30704      0.36237  1.0000
  Si          0.67086      0.29337      0.69765  1.0000
  Si          0.26892      0.60359      0.53000  1.0000
  Si          0.36520      0.66174      0.86174  1.0000
  Si          0.29678      0.68958      0.19658  1.0000
  Si          0.34864      0.68342      0.29705  1.0000
  Si          0.30857      0.60921      0.96207  1.0000
  Si          0.28241      0.66562      0.63227  1.0000
  Si          0.61185      0.28393      0.79938  1.0000
  Si          0.64829      0.36432      0.46289  1.0000
  Si          0.66677      0.30597      0.13190  1.0000
  Si          0.52133      0.40856      0.96666  1.0000
  Si          0.55605      0.09306      0.30046  1.0000
  Ge          0.88669      0.46116      0.63016  1.0000
  Si          0.43738      0.56380      0.46258  1.0000
  Si          0.40557      0.87227      0.79706  1.0000
  Si          0.08885      0.51896      0.12929  1.0000
  Si          0.38465      0.50974      0.36106  1.0000
  Si          0.09394      0.57249      0.02615  1.0000
  Si          0.46012      0.88023      0.69569  1.0000
  Si          0.57333      0.45735      0.86403  1.0000
  Si          0.84807      0.39293      0.53122  1.0000
  Si          0.50515      0.09758      0.19912  1.0000
  Si          0.29081      0.38549      0.84809  1.0000
  Si          0.57722      0.89094      0.18276  1.0000
  Si          0.06235      0.67958      0.51713  1.0000
  Si          0.66739      0.58253      0.34734  1.0000
  Si          0.38974      0.08830      0.68280  1.0000
  Si          0.88059      0.28461      0.01070  1.0000
  Si          0.36767      0.28623      0.47706  1.0000
  Si          0.87383      0.59040      0.14283  1.0000
  Si          0.68738      0.08209      0.81249  1.0000
  Si          0.58782      0.68835      0.97812  1.0000
  Si          0.08236      0.38327      0.65174  1.0000
  Si          0.27325      0.88421      0.31353  1.0000
  Si          0.24085      0.33153      0.94857  1.0000
  Si          0.63217      0.89280      0.28366  1.0000
  Si          0.06748      0.73972      0.61940  1.0000
  Si          0.71853      0.64325      0.44807  1.0000
  Si          0.32963      0.07344      0.78330  1.0000
  Si          0.88392      0.23760      0.11397  1.0000
  Si          0.30908      0.23316      0.37640  1.0000
  Si          0.89285      0.65738      0.04047  1.0000
  Si          0.73942      0.08169      0.71149  1.0000
  Si          0.64748      0.73462      0.87746  1.0000
  Si          0.05558      0.31920      0.54861  1.0000
  Si          0.22420      0.89595      0.21292  1.0000
  Si          0.96209      0.11141      0.96328  1.0000
  Si          0.84925      0.82932      0.29780  1.0000
  Si          0.14316      0.02395      0.63174  1.0000
  Si          0.99905      0.86198      0.46556  1.0000
  Si          0.11168      0.13466      0.79864  1.0000
  Si          0.82642      0.96148      0.13141  1.0000
  Si          0.09294      0.95165      0.36414  1.0000
  Si          0.83586      0.87482      0.02995  1.0000
  Si          0.02069      0.13870      0.69826  1.0000
  Si          0.86666      0.01258      0.86313  1.0000
  Si          0.12367      0.10612      0.53082  1.0000
  Si          0.94465      0.83712      0.19624  1.0000
  O2          0.91765      0.99923      0.99970  1.0000
  O2          0.96927      0.90548      0.33181  1.0000
  O2          0.05899      0.06008      0.66403  1.0000
  O2          0.03925      0.98178      0.49912  1.0000
  O2          0.99059      0.05576      0.83153  1.0000
  O2          0.90665      0.92233      0.16519  1.0000
  O2          0.30837      0.55866      0.32854  1.0000
  O2          0.41043      0.75542      0.66208  1.0000
  O2          0.22145      0.64658      0.99476  1.0000
  O2          0.64989      0.40595      0.83261  1.0000
  O2          0.55588      0.22622      0.16948  1.0000
  O2          0.73242      0.32245      0.49384  1.0000
  O3          0.56359      0.33293      0.99889  1.0000
  O3          0.75233      0.41319      0.66682  1.0000
  O2          0.63310      0.22018      0.33208  1.0000
  O2          0.38715      0.63896      0.49536  1.0000
  O2          0.21262      0.56840      0.16270  1.0000
  O2          0.32774      0.74551      0.82853  1.0000
  O2          0.11644      0.20281      0.96866  1.0000
  O2          0.75859      0.89254      0.30382  1.0000
  O2          0.08334      0.87259      0.63771  1.0000
  O2          0.84324      0.77139      0.46857  1.0000
  O2          0.20290      0.07231      0.80409  1.0000
  O2          0.88656      0.11524      0.13561  1.0000
  O2          0.18250      0.10494      0.35685  1.0000
  O2          0.90984      0.79425      0.02515  1.0000
  O2          0.86736      0.08368      0.69124  1.0000
  O2          0.77483      0.85930      0.85699  1.0000
  O2          0.05817      0.19532      0.52777  1.0000
  O2          0.09975      0.89908      0.19233  1.0000
  O2          0.90280      0.84427      0.24722  1.0000
  O2          0.12436      0.05870      0.58097  1.0000
  O2          0.91884      0.04807      0.91415  1.0000
  O2          0.05471      0.11670      0.74839  1.0000
  O2          0.84058      0.92096      0.08136  1.0000
  O2          0.04466      0.91687      0.41548  1.0000
  O2          0.89377      0.19505      0.97282  1.0000
  O2          0.76536      0.67773      0.30868  1.0000
  O2          0.29555      0.09524      0.64389  1.0000
  O2          0.06391      0.77641      0.47856  1.0000
  O2          0.19371      0.28662      0.80956  1.0000
  O2          0.67407      0.89074      0.14411  1.0000
  O2          0.17538      0.88232      0.35236  1.0000
  O2          0.68482      0.78927      0.01646  1.0000
  O2          0.10211      0.29080      0.68697  1.0000
  O2          0.78580      0.08288      0.85095  1.0000
  O2          0.27301      0.18857      0.51543  1.0000
  O2          0.87504      0.68777      0.18146  1.0000
  O2          0.29383      0.62863      0.24617  1.0000
  O2          0.32561      0.66064      0.57999  1.0000
  O2          0.30528      0.66335      0.91166  1.0000
  O2          0.66919      0.34108      0.74967  1.0000
  O3          0.60318      0.29874      0.08422  1.0000
  O2          0.64831      0.30822      0.41266  1.0000
  O2          0.36283      0.32307      0.96713  1.0000
  O2          0.64339      0.02435      0.30310  1.0000
  O3          0.93725      0.62762      0.63935  1.0000
  O2          0.59438      0.65165      0.46621  1.0000
  O2          0.31794      0.94072      0.80104  1.0000
  O2          0.01580      0.36380      0.13134  1.0000
  O2          0.29685      0.35367      0.35807  1.0000
  O2          0.02645      0.66041      0.02553  1.0000
  O2          0.61723      0.94806      0.69245  1.0000
  O2          0.65861      0.61305      0.85967  1.0000
  O2          0.92308      0.30963      0.53024  1.0000
  O2          0.34799      0.02758      0.19513  1.0000
  O3          0.74743      0.27857      0.00214  1.0000
  O2          0.66758      0.44923      0.33980  1.0000
  O2          0.52359      0.22154      0.67675  1.0000
  O2          0.19434      0.67413      0.51029  1.0000
  O2          0.29127      0.51852      0.83910  1.0000
  O2          0.44085      0.75882      0.17427  1.0000
  O2          0.27237      0.75012      0.31974  1.0000
  O2          0.45240      0.68839      0.98494  1.0000
  O2          0.21698      0.52199      0.65284  1.0000
  O2          0.68502      0.21366      0.82143  1.0000
  O2          0.50417      0.29112      0.48516  1.0000
  O2          0.74216      0.45507      0.15091  1.0000
  O3          0.76860      0.54326      0.01807  1.0000
  O2          0.43553      0.23362      0.35657  1.0000
  O2          0.73930      0.20565      0.69193  1.0000
  O2          0.17820      0.44941      0.52971  1.0000
  O2          0.52246      0.73647      0.85749  1.0000
  O2          0.22012      0.76889      0.19274  1.0000
  O2          0.50559      0.76597      0.30250  1.0000
  O2          0.23378      0.45397      0.96815  1.0000
  O2          0.19215      0.72948      0.63607  1.0000
  O2          0.45482      0.19981      0.80341  1.0000
  O2          0.72221      0.52020      0.46765  1.0000
  O2          0.75973      0.24175      0.13298  1.0000
  O2          0.21792      0.31271      0.89429  1.0000
  O2          0.65049      0.89283      0.22930  1.0000
  O2          0.06401      0.74844      0.56416  1.0000
  O2          0.73811      0.65906      0.39370  1.0000
  O2          0.31096      0.07747      0.72901  1.0000
  O2          0.88443      0.22260      0.05971  1.0000
  O2          0.29288      0.21467      0.43068  1.0000
  O2          0.87840      0.65919      0.09578  1.0000
  O2          0.75935      0.08221      0.76584  1.0000
  O2          0.66467      0.75624      0.93184  1.0000
  O2          0.06238      0.30938      0.60274  1.0000
  O2          0.20386      0.89198      0.26731  1.0000
  O2          0.57206      0.55083      0.98862  1.0000
  O2          0.41420      0.00782      0.32355  1.0000
  O3          0.96023      0.39277      0.66547  1.0000
  O2          0.37723      0.42338      0.48568  1.0000
  O2          0.54794      0.95482      0.82050  1.0000
  O2          0.99758      0.57139      0.14884  1.0000
  O2          0.52682      0.56716      0.33809  1.0000
  O2          0.00195      0.43082      0.00536  1.0000
  O2          0.40103      0.96199      0.67230  1.0000
  O2          0.43103      0.39874      0.84075  1.0000
  O2          0.93924      0.53805      0.51075  1.0000
  O2          0.56474      0.01686      0.17511  1.0000
  O2          0.55646      0.14718      0.25023  1.0000
  O3          0.78866      0.38737      0.57958  1.0000
  O2          0.57522      0.41171      0.91535  1.0000
  O2          0.40408      0.82054      0.74561  1.0000
  O2          0.13756      0.56699      0.07818  1.0000
  O2          0.38377      0.56385      0.41182  1.0000
  F           0.42384      0.88655      0.24796  1.0000
  F           0.02956      0.51340      0.59170  1.0000
  F           0.43560      0.53939      0.91317  1.0000
  F           0.53333      0.07615      0.74741  1.0000
  F           0.84451      0.42975      0.07060  1.0000
  F           0.51622      0.43635      0.41226  1.0000
