data_cif

_audit_creation_method             'generated by GULP'

_symmetry_space_group_name_H-M     'P 1'
_symmetry_Int_Tables_number        1
_symmetry_cell_setting             triclinic

_cell_length_a                       11.9387
_cell_length_b                       12.0086
_cell_length_c                       29.4086
_cell_angle_alpha                   90.1972
_cell_angle_beta                    90.3302
_cell_angle_gamma                  120.2110

loop_
_atom_site_label
_atom_site_fract_x
_atom_site_fract_y
_atom_site_fract_z
_atom_site_occupancy
  Ge          0.69960      0.37570      0.03389  1.0000
  Si          0.60685      0.30898      0.36547  1.0000
  Si          0.66927      0.28974      0.69880  1.0000
  Si          0.28129      0.60876      0.52909  1.0000
  Si          0.36980      0.66597      0.86149  1.0000
  Si          0.30883      0.69285      0.19630  1.0000
  Si          0.36077      0.68412      0.29693  1.0000
  Si          0.31527      0.61912      0.96206  1.0000
  Si          0.28932      0.66817      0.62985  1.0000
  Si          0.61440      0.28660      0.79964  1.0000
  Si          0.66100      0.36858      0.46620  1.0000
  Si          0.67816      0.30783      0.13297  1.0000
  Si          0.52154      0.41230      0.96733  1.0000
  Si          0.56890      0.09543      0.30243  1.0000
  Si          0.87780      0.46186      0.63359  1.0000
  Si          0.45105      0.56970      0.46318  1.0000
  Si          0.40915      0.87586      0.79676  1.0000
  Si          0.10013      0.52235      0.12862  1.0000
  Si          0.39953      0.51193      0.36127  1.0000
  Si          0.10158      0.57906      0.02517  1.0000
  Si          0.46272      0.88002      0.69490  1.0000
  Si          0.57371      0.45828      0.86461  1.0000
  Si          0.87195      0.40646      0.53172  1.0000
  Si          0.51742      0.10049      0.20077  1.0000
  Si          0.29235      0.38842      0.84840  1.0000
  Si          0.58911      0.89376      0.18346  1.0000
  Si          0.07973      0.68617      0.51594  1.0000
  Si          0.68157      0.58425      0.34846  1.0000
  Si          0.39062      0.08826      0.68194  1.0000
  Ge          0.88487      0.28780      0.00997  1.0000
  Si          0.38094      0.29064      0.47868  1.0000
  Si          0.88564      0.59283      0.14345  1.0000
  Si          0.69159      0.08532      0.81290  1.0000
  Si          0.59368      0.69519      0.97780  1.0000
  Si          0.08856      0.39084      0.64608  1.0000
  Si          0.28603      0.88539      0.31424  1.0000
  Si          0.24221      0.33825      0.94907  1.0000
  Si          0.64408      0.89420      0.28452  1.0000
  Si          0.07891      0.73999      0.61687  1.0000
  Si          0.73124      0.64741      0.44924  1.0000
  Si          0.33249      0.07731      0.78270  1.0000
  Si          0.89458      0.23890      0.11422  1.0000
  Si          0.32408      0.23522      0.37779  1.0000
  Si          0.89791      0.65911      0.04098  1.0000
  Si          0.74206      0.08197      0.71188  1.0000
  Si          0.65081      0.73752      0.87687  1.0000
  Si          0.07331      0.32836      0.54524  1.0000
  Si          0.23670      0.89940      0.21354  1.0000
  Si          0.96424      0.11203      0.96133  1.0000
  Si          0.86128      0.83079      0.29809  1.0000
  Si          0.14143      0.01991      0.63081  1.0000
  Si          0.01184      0.86583      0.46481  1.0000
  Si          0.11481      0.13915      0.79660  1.0000
  Si          0.83699      0.96427      0.13200  1.0000
  Si          0.10640      0.95401      0.36374  1.0000
  Si          0.84265      0.87912      0.02979  1.0000
  Si          0.02227      0.14350      0.69569  1.0000
  Si          0.87208      0.01371      0.86140  1.0000
  Si          0.13428      0.11022      0.52992  1.0000
  Si          0.95690      0.83998      0.19668  1.0000
  O2          0.92473      0.00088      0.99831  1.0000
  O2          0.98512      0.91043      0.33026  1.0000
  O2          0.06070      0.06310      0.66210  1.0000
  O2          0.05354      0.98865      0.49690  1.0000
  O2          0.98960      0.05576      0.82703  1.0000
  O2          0.91858      0.92295      0.16433  1.0000
  O2          0.32210      0.55889      0.32808  1.0000
  O2          0.41517      0.75554      0.66173  1.0000
  O2          0.23085      0.65903      0.99473  1.0000
  O2          0.65111      0.40758      0.83330  1.0000
  O2          0.56894      0.22957      0.17091  1.0000
  O2          0.74363      0.32993      0.49981  1.0000
  O3          0.56032      0.33638      0.00079  1.0000
  O2          0.75438      0.41416      0.66682  1.0000
  O2          0.64624      0.22083      0.33506  1.0000
  O2          0.40190      0.64660      0.49511  1.0000
  O2          0.22515      0.57265      0.16160  1.0000
  O2          0.33135      0.74923      0.82805  1.0000
  O2          0.11637      0.21332      0.96989  1.0000
  O2          0.76983      0.89281      0.30483  1.0000
  O2          0.07965      0.86637      0.63699  1.0000
  O2          0.85683      0.77555      0.46944  1.0000
  O2          0.20584      0.07644      0.80278  1.0000
  O2          0.89744      0.11789      0.13789  1.0000
  O2          0.19814      0.10753      0.35743  1.0000
  O2          0.91332      0.79543      0.02558  1.0000
  O2          0.86756      0.08182      0.69113  1.0000
  O2          0.77818      0.86025      0.85561  1.0000
  O2          0.06973      0.20002      0.52550  1.0000
  O2          0.11189      0.90316      0.19336  1.0000
  O2          0.91103      0.84574      0.24698  1.0000
  O2          0.12592      0.05599      0.57988  1.0000
  O2          0.93381      0.04883      0.91148  1.0000
  O2          0.06587      0.12865      0.74541  1.0000
  O2          0.84922      0.92751      0.08100  1.0000
  O2          0.05288      0.91754      0.41421  1.0000
  O3          0.88700      0.18574      0.96854  1.0000
  O2          0.77992      0.67917      0.30974  1.0000
  O2          0.29390      0.09105      0.64328  1.0000
  O2          0.08022      0.78345      0.47755  1.0000
  O2          0.19464      0.28985      0.80979  1.0000
  O2          0.68517      0.89278      0.14484  1.0000
  O2          0.18796      0.88316      0.35276  1.0000
  O2          0.69142      0.79566      0.01618  1.0000
  O2          0.09266      0.29533      0.68418  1.0000
  O2          0.78959      0.08462      0.85152  1.0000
  O2          0.28555      0.19421      0.51729  1.0000
  O2          0.88854      0.69003      0.18229  1.0000
  O2          0.30565      0.63033      0.24575  1.0000
  O2          0.34346      0.66729      0.57907  1.0000
  O2          0.31156      0.67115      0.91119  1.0000
  O2          0.67097      0.34582      0.74955  1.0000
  O3          0.61275      0.30267      0.08548  1.0000
  O2          0.66368      0.31153      0.41611  1.0000
  O2          0.36345      0.32834      0.96750  1.0000
  O2          0.65561      0.02585      0.30426  1.0000
  O2          0.94724      0.61809      0.63591  1.0000
  O2          0.60801      0.65775      0.46633  1.0000
  O2          0.32165      0.94442      0.80008  1.0000
  O2          0.02673      0.36705      0.13069  1.0000
  O2          0.31271      0.35556      0.35835  1.0000
  O2          0.03184      0.66520      0.02563  1.0000
  O2          0.61967      0.95002      0.69244  1.0000
  O2          0.65988      0.61404      0.85980  1.0000
  O2          0.93944      0.31823      0.52762  1.0000
  O2          0.36062      0.03155      0.19608  1.0000
  O1          0.74135      0.27936      0.00098  1.0000
  O2          0.68166      0.45017      0.34177  1.0000
  O2          0.52574      0.22247      0.67552  1.0000
  O2          0.21239      0.68380      0.50727  1.0000
  O2          0.29447      0.52240      0.83882  1.0000
  O2          0.45258      0.76209      0.17425  1.0000
  O2          0.28457      0.75046      0.31978  1.0000
  O2          0.45983      0.69741      0.98438  1.0000
  O2          0.22334      0.52586      0.65252  1.0000
  O2          0.69043      0.21825      0.82134  1.0000
  O2          0.51623      0.29349      0.48732  1.0000
  O2          0.75544      0.45703      0.15168  1.0000
  O3          0.77265      0.54393      0.01911  1.0000
  O2          0.45012      0.23336      0.35925  1.0000
  O2          0.74455      0.20934      0.69315  1.0000
  O2          0.19903      0.45248      0.52462  1.0000
  O2          0.52664      0.74075      0.85656  1.0000
  O2          0.23207      0.77236      0.19263  1.0000
  O2          0.51729      0.76704      0.30270  1.0000
  O2          0.23954      0.46349      0.96823  1.0000
  O2          0.20696      0.74151      0.63540  1.0000
  O2          0.45777      0.20295      0.80342  1.0000
  O2          0.73333      0.52453      0.47019  1.0000
  O2          0.77027      0.24337      0.13275  1.0000
  O2          0.21877      0.31771      0.89468  1.0000
  O2          0.66222      0.89478      0.23009  1.0000
  O2          0.07788      0.75754      0.56243  1.0000
  O2          0.75196      0.66169      0.39482  1.0000
  O2          0.31500      0.08128      0.72827  1.0000
  O3          0.89415      0.21720      0.06093  1.0000
  O2          0.30603      0.21815      0.43217  1.0000
  O2          0.88519      0.65908      0.09625  1.0000
  O2          0.76217      0.08283      0.76632  1.0000
  O2          0.66953      0.76193      0.93124  1.0000
  O2          0.07969      0.31406      0.59958  1.0000
  O2          0.21694      0.89452      0.26792  1.0000
  O2          0.57602      0.55660      0.98832  1.0000
  O2          0.42699      0.00841      0.32472  1.0000
  O2          0.96438      0.40636      0.65586  1.0000
  O2          0.39409      0.42959      0.48654  1.0000
  O2          0.55100      0.96000      0.82045  1.0000
  O2          0.01012      0.57536      0.14852  1.0000
  O2          0.54153      0.56933      0.33854  1.0000
  O3          0.01586      0.44182      0.00150  1.0000
  O2          0.40481      0.96368      0.67204  1.0000
  O2          0.43121      0.39886      0.84129  1.0000
  O2          0.95294      0.54649      0.50778  1.0000
  O2          0.57736      0.02072      0.17626  1.0000
  O2          0.56863      0.15016      0.25209  1.0000
  O2          0.82129      0.40697      0.58285  1.0000
  O2          0.57533      0.41274      0.91613  1.0000
  O2          0.40920      0.82516      0.74539  1.0000
  O2          0.14456      0.56850      0.07706  1.0000
  O2          0.39814      0.56674      0.41180  1.0000
  F           0.43558      0.88874      0.24798  1.0000
  F           0.08362      0.53765      0.58032  1.0000
  F           0.43959      0.54473      0.91238  1.0000
  F           0.54120      0.08713      0.74682  1.0000
  F           0.85429      0.42615      0.06820  1.0000
  F           0.53115      0.43783      0.41291  1.0000
