data_cif

_audit_creation_method             'generated by GULP'

_symmetry_space_group_name_H-M     'P 1'
_symmetry_Int_Tables_number        1
_symmetry_cell_setting             triclinic

_cell_length_a                       11.9403
_cell_length_b                       12.0328
_cell_length_c                       29.3643
_cell_angle_alpha                   89.9595
_cell_angle_beta                    89.9534
_cell_angle_gamma                  120.2963

loop_
_atom_site_label
_atom_site_fract_x
_atom_site_fract_y
_atom_site_fract_z
_atom_site_occupancy
  Ge          0.69960      0.37570      0.03389  1.0000
  Si          0.61094      0.30306      0.36203  1.0000
  Si          0.66959      0.29215      0.69739  1.0000
  Si          0.28483      0.61456      0.52741  1.0000
  Si          0.36834      0.66547      0.86045  1.0000
  Si          0.29734      0.69009      0.19452  1.0000
  Si          0.34224      0.67674      0.29510  1.0000
  Si          0.30948      0.61230      0.96098  1.0000
  Si          0.29171      0.67236      0.62834  1.0000
  Si          0.61279      0.28841      0.79841  1.0000
  Si          0.66762      0.37450      0.46403  1.0000
  Si          0.67000      0.30642      0.13246  1.0000
  Si          0.52227      0.41032      0.96641  1.0000
  Si          0.55762      0.08098      0.30184  1.0000
  Si          0.88017      0.46621      0.63234  1.0000
  Si          0.45500      0.57809      0.45984  1.0000
  Si          0.40707      0.87644      0.79573  1.0000
  Si          0.09015      0.51984      0.12747  1.0000
  Si          0.39252      0.51319      0.35681  1.0000
  Si          0.09257      0.57378      0.02409  1.0000
  Si          0.46297      0.88265      0.69362  1.0000
  Si          0.57490      0.46116      0.86339  1.0000
  Si          0.87673      0.41362      0.53033  1.0000
  Si          0.51008      0.09653      0.20061  1.0000
  Si          0.29378      0.38958      0.84716  1.0000
  Si          0.57951      0.88849      0.18282  1.0000
  Si          0.08464      0.69343      0.51439  1.0000
  Ge          0.66754      0.57077      0.35232  1.0000
  Si          0.39179      0.09079      0.68095  1.0000
  Si          0.88022      0.28576      0.00924  1.0000
  Si          0.38407      0.29520      0.47712  1.0000
  Si          0.87657      0.59200      0.14227  1.0000
  Si          0.68914      0.08669      0.81154  1.0000
  Si          0.58816      0.69087      0.97733  1.0000
  Si          0.09033      0.39455      0.64512  1.0000
  Si          0.27160      0.87893      0.31287  1.0000
  Si          0.24228      0.33406      0.94791  1.0000
  Si          0.63046      0.87873      0.28395  1.0000
  Si          0.08163      0.74483      0.61559  1.0000
  Si          0.74063      0.65985      0.44796  1.0000
  Si          0.33085      0.07816      0.78180  1.0000
  Si          0.88623      0.23816      0.11281  1.0000
  Si          0.32298      0.23447      0.37535  1.0000
  Si          0.89192      0.65790      0.03934  1.0000
  Si          0.74193      0.08472      0.71042  1.0000
  Si          0.64944      0.73863      0.87631  1.0000
  Si          0.07685      0.33479      0.54412  1.0000
  Si          0.22716      0.89723      0.21199  1.0000
  Si          0.96308      0.11425      0.96186  1.0000
  Si          0.85204      0.81994      0.29863  1.0000
  Si          0.14344      0.02400      0.63051  1.0000
  Si          0.01593      0.87355      0.46516  1.0000
  Si          0.11408      0.14142      0.79630  1.0000
  Si          0.82900      0.96179      0.13080  1.0000
  Si          0.09761      0.95423      0.36242  1.0000
  Si          0.83568      0.87600      0.02888  1.0000
  Si          0.02272      0.14658      0.69526  1.0000
  Si          0.86902      0.01712      0.86144  1.0000
  Si          0.13776      0.11736      0.52978  1.0000
  Si          0.94812      0.83859      0.19616  1.0000
  O2          0.91671      0.99993      0.99780  1.0000
  O2          0.97666      0.91432      0.32972  1.0000
  O2          0.06291      0.06595      0.66253  1.0000
  O2          0.06052      0.99689      0.49685  1.0000
  O2          0.99019      0.06064      0.82814  1.0000
  O2          0.91029      0.92313      0.16409  1.0000
  O2          0.30144      0.55096      0.32688  1.0000
  O2          0.41654      0.75915      0.66030  1.0000
  O2          0.22080      0.64907      0.99273  1.0000
  O2          0.65122      0.40984      0.83161  1.0000
  O2          0.56265      0.22726      0.17132  1.0000
  O2          0.74900      0.33695      0.49838  1.0000
  O3          0.56339      0.33395      0.99884  1.0000
  O2          0.75557      0.41751      0.66543  1.0000
  O2          0.63836      0.20079      0.33614  1.0000
  O2          0.40466      0.65186      0.49262  1.0000
  O2          0.21512      0.57047      0.15996  1.0000
  O2          0.32985      0.74921      0.82718  1.0000
  O2          0.11703      0.20560      0.96809  1.0000
  O2          0.75173      0.87343      0.30515  1.0000
  O2          0.08146      0.87023      0.63584  1.0000
  O2          0.86210      0.78110      0.47344  1.0000
  O2          0.20329      0.07655      0.80171  1.0000
  O2          0.88946      0.11586      0.13442  1.0000
  O2          0.19712      0.10745      0.35592  1.0000
  O2          0.90830      0.79455      0.02348  1.0000
  O2          0.86833      0.08534      0.68975  1.0000
  O2          0.77745      0.86361      0.85576  1.0000
  O2          0.07333      0.20666      0.52459  1.0000
  O2          0.10349      0.90169      0.19148  1.0000
  O2          0.90493      0.84485      0.24679  1.0000
  O2          0.12871      0.06363      0.57991  1.0000
  O2          0.92453      0.05399      0.91201  1.0000
  O2          0.06251      0.13101      0.74549  1.0000
  O2          0.84182      0.92201      0.08028  1.0000
  O2          0.04989      0.92529      0.41414  1.0000
  O2          0.89363      0.19684      0.97103  1.0000
  O3          0.78216      0.67373      0.31012  1.0000
  O2          0.29585      0.09431      0.64229  1.0000
  O2          0.08738      0.79290      0.47634  1.0000
  O2          0.19718      0.29214      0.80839  1.0000
  O2          0.67709      0.89095      0.14380  1.0000
  O2          0.17433      0.87855      0.35158  1.0000
  O2          0.68444      0.79108      0.01570  1.0000
  O2          0.09396      0.29843      0.68319  1.0000
  O2          0.78629      0.08637      0.85016  1.0000
  O2          0.28993      0.20302      0.51692  1.0000
  O2          0.87941      0.68925      0.18091  1.0000
  O2          0.28992      0.62443      0.24384  1.0000
  O2          0.34681      0.67277      0.57730  1.0000
  O2          0.30775      0.66691      0.91023  1.0000
  O2          0.66979      0.34740      0.74802  1.0000
  O3          0.60500      0.29864      0.08473  1.0000
  O2          0.66665      0.31664      0.41413  1.0000
  O2          0.36382      0.32508      0.96635  1.0000
  O2          0.64292      0.01104      0.30297  1.0000
  O2          0.94944      0.62213      0.63450  1.0000
  O2          0.61148      0.66484      0.46284  1.0000
  O2          0.31962      0.94495      0.79910  1.0000
  O2          0.01824      0.36453      0.12961  1.0000
  O2          0.31264      0.35593      0.35744  1.0000
  O2          0.02472      0.66120      0.02323  1.0000
  O2          0.62013      0.95310      0.69095  1.0000
  O2          0.66060      0.61704      0.85853  1.0000
  O2          0.94425      0.32568      0.52596  1.0000
  O2          0.35360      0.02905      0.19511  1.0000
  O3          0.74674      0.27909      0.00132  1.0000
  O3          0.68573      0.43721      0.33657  1.0000
  O2          0.52679      0.22513      0.67393  1.0000
  O2          0.21664      0.68975      0.50547  1.0000
  O2          0.29478      0.52288      0.83753  1.0000
  O2          0.44202      0.75934      0.17260  1.0000
  O2          0.26524      0.74191      0.31807  1.0000
  O2          0.45293      0.69098      0.98375  1.0000
  O2          0.22529      0.52952      0.65092  1.0000
  O2          0.68775      0.21908      0.81979  1.0000
  O2          0.52057      0.30084      0.48368  1.0000
  O2          0.74508      0.45611      0.15052  1.0000
  O3          0.76680      0.54341      0.01765  1.0000
  O2          0.45312      0.23900      0.35846  1.0000
  O2          0.74539      0.21245      0.69152  1.0000
  O2          0.20444      0.45826      0.52340  1.0000
  O2          0.52559      0.74173      0.85579  1.0000
  O2          0.22179      0.77043      0.19081  1.0000
  O2          0.49825      0.75606      0.30187  1.0000
  O2          0.23608      0.45696      0.96717  1.0000
  O2          0.20877      0.74484      0.63392  1.0000
  O2          0.45592      0.20353      0.80234  1.0000
  O2          0.73332      0.52895      0.46678  1.0000
  O2          0.76287      0.24246      0.13226  1.0000
  O2          0.22003      0.31598      0.89342  1.0000
  O2          0.64846      0.88164      0.22922  1.0000
  O2          0.08243      0.76352      0.56111  1.0000
  O3          0.77038      0.68247      0.39526  1.0000
  O2          0.31470      0.08303      0.72726  1.0000
  O2          0.88569      0.22362      0.05828  1.0000
  O2          0.31384      0.22609      0.43025  1.0000
  O2          0.88004      0.66024      0.09480  1.0000
  O2          0.76069      0.08477      0.76488  1.0000
  O2          0.66542      0.75950      0.93079  1.0000
  O2          0.08135      0.31868      0.59850  1.0000
  O2          0.20558      0.89179      0.26649  1.0000
  O2          0.57143      0.55269      0.98774  1.0000
  O2          0.41413      0.99841      0.32409  1.0000
  O2          0.96661      0.41102      0.65476  1.0000
  O2          0.40407      0.43677      0.48129  1.0000
  O2          0.54849      0.96100      0.81913  1.0000
  O2          0.99933      0.57162      0.14759  1.0000
  O3          0.52834      0.57147      0.33137  1.0000
  O2          0.00125      0.43233      0.00307  1.0000
  O2          0.40505      0.96609      0.67071  1.0000
  O2          0.43331      0.40165      0.83971  1.0000
  O2          0.95713      0.55417      0.50628  1.0000
  O2          0.57122      0.01750      0.17656  1.0000
  O2          0.55916      0.14218      0.25232  1.0000
  O2          0.82474      0.41225      0.58155  1.0000
  O2          0.57664      0.41457      0.91480  1.0000
  O2          0.40818      0.82689      0.74423  1.0000
  O2          0.13688      0.56805      0.07595  1.0000
  O2          0.40220      0.57031      0.40847  1.0000
  F           0.42154      0.88124      0.24705  1.0000
  F           0.08686      0.54221      0.57821  1.0000
  F           0.43790      0.54305      0.91102  1.0000
  F           0.54003      0.08871      0.74489  1.0000
  F           0.84592      0.43047      0.06939  1.0000
  F           0.56055      0.46873      0.40088  1.0000
