data_cif

_audit_creation_method             'generated by GULP'

_symmetry_space_group_name_H-M     'P 1'
_symmetry_Int_Tables_number        1
_symmetry_cell_setting             triclinic

_cell_length_a                       11.9276
_cell_length_b                       12.0072
_cell_length_c                       29.3824
_cell_angle_alpha                   90.4051
_cell_angle_beta                    89.8668
_cell_angle_gamma                  119.9979

loop_
_atom_site_label
_atom_site_fract_x
_atom_site_fract_y
_atom_site_fract_z
_atom_site_occupancy
  Ge          0.69960      0.37570      0.03389  1.0000
  Si          0.60711      0.30297      0.36530  1.0000
  Si          0.66221      0.27928      0.69825  1.0000
  Si          0.28107      0.60095      0.53131  1.0000
  Si          0.36370      0.66056      0.86422  1.0000
  Si          0.29769      0.67347      0.19576  1.0000
  Si          0.36315      0.67648      0.29785  1.0000
  Si          0.30936      0.60678      0.96460  1.0000
  Si          0.28379      0.65856      0.63221  1.0000
  Si          0.60842      0.28218      0.79919  1.0000
  Si          0.66162      0.35991      0.46611  1.0000
  Si          0.66269      0.30829      0.13210  1.0000
  Si          0.52076      0.40585      0.96626  1.0000
  Si          0.57241      0.09285      0.30026  1.0000
  Si          0.87208      0.45209      0.63331  1.0000
  Si          0.45248      0.56209      0.46548  1.0000
  Si          0.40278      0.87036      0.79955  1.0000
  Si          0.08016      0.50705      0.13139  1.0000
  Si          0.40215      0.50678      0.36344  1.0000
  Si          0.09304      0.56681      0.02855  1.0000
  Si          0.45581      0.86990      0.69749  1.0000
  Si          0.57035      0.45701      0.86351  1.0000
  Si          0.87212      0.39865      0.53136  1.0000
  Si          0.51213      0.09945      0.19769  1.0000
  Si          0.28851      0.38481      0.84880  1.0000
  Ge          0.56938      0.88438      0.18906  1.0000
  Si          0.07986      0.67781      0.51692  1.0000
  Si          0.68387      0.57905      0.34954  1.0000
  Si          0.38418      0.07772      0.68331  1.0000
  Si          0.87825      0.28014      0.01197  1.0000
  Si          0.38174      0.28245      0.48021  1.0000
  Si          0.87293      0.58920      0.14394  1.0000
  Si          0.68485      0.08080      0.81396  1.0000
  Si          0.58928      0.68709      0.97957  1.0000
  Si          0.08257      0.38080      0.64715  1.0000
  Si          0.28637      0.88002      0.31455  1.0000
  Si          0.24015      0.32808      0.94948  1.0000
  Si          0.65199      0.89027      0.28508  1.0000
  Si          0.07324      0.73023      0.61785  1.0000
  Si          0.73282      0.63966      0.45059  1.0000
  Si          0.32655      0.07211      0.78416  1.0000
  Si          0.87260      0.22775      0.11534  1.0000
  Si          0.32537      0.23000      0.37922  1.0000
  Si          0.89448      0.65604      0.04138  1.0000
  Si          0.73467      0.07198      0.71289  1.0000
  Si          0.64559      0.73449      0.87830  1.0000
  Si          0.07336      0.32095      0.54610  1.0000
  Si          0.22959      0.88982      0.21293  1.0000
  Si          0.96210      0.10858      0.96400  1.0000
  Si          0.86409      0.82622      0.30036  1.0000
  Si          0.13585      0.00999      0.63234  1.0000
  Si          0.01283      0.85796      0.46646  1.0000
  Si          0.10913      0.13543      0.79846  1.0000
  Si          0.81928      0.95170      0.13403  1.0000
  Si          0.10863      0.94976      0.36559  1.0000
  Si          0.83723      0.87337      0.03166  1.0000
  Si          0.01520      0.13380      0.69739  1.0000
  Si          0.86515      0.01204      0.86361  1.0000
  Si          0.13425      0.10233      0.53136  1.0000
  Si          0.95005      0.83734      0.19724  1.0000
  O2          0.91683      0.99569      0.00005  1.0000
  O2          0.98908      0.90415      0.33183  1.0000
  O2          0.05548      0.05330      0.66419  1.0000
  O2          0.05374      0.98021      0.49870  1.0000
  O2          0.98580      0.05510      0.83023  1.0000
  O2          0.91376      0.92358      0.16621  1.0000
  O2          0.32523      0.55463      0.33043  1.0000
  O2          0.40732      0.74415      0.66481  1.0000
  O2          0.22209      0.64216      0.99802  1.0000
  O2          0.64701      0.40634      0.83130  1.0000
  O2          0.55253      0.23116      0.17045  1.0000
  O2          0.74556      0.32165      0.49897  1.0000
  O3          0.56520      0.33098      0.99788  1.0000
  O2          0.74641      0.40259      0.66571  1.0000
  O2          0.64637      0.21657      0.33345  1.0000
  O2          0.40369      0.63903      0.49785  1.0000
  O2          0.19875      0.54795      0.16634  1.0000
  O2          0.32533      0.74567      0.83169  1.0000
  O2          0.11618      0.19947      0.96946  1.0000
  O2          0.77155      0.88618      0.31021  1.0000
  O2          0.07243      0.85619      0.63777  1.0000
  O2          0.85797      0.76688      0.47097  1.0000
  O2          0.20017      0.07245      0.80440  1.0000
  O2          0.87150      0.10577      0.13829  1.0000
  O2          0.19889      0.10294      0.35922  1.0000
  O2          0.91190      0.79305      0.02583  1.0000
  O2          0.86068      0.07109      0.69235  1.0000
  O2          0.77244      0.85887      0.85755  1.0000
  O2          0.07126      0.19335      0.52613  1.0000
  O2          0.10484      0.89303      0.19348  1.0000
  O2          0.91287      0.84485      0.24900  1.0000
  O2          0.12282      0.04887      0.58156  1.0000
  O2          0.92122      0.04750      0.91418  1.0000
  O2          0.05734      0.12095      0.74750  1.0000
  O2          0.84364      0.92039      0.08290  1.0000
  O2          0.05458      0.91129      0.41594  1.0000
  O2          0.89351      0.19221      0.97355  1.0000
  O2          0.78376      0.67397      0.31115  1.0000
  O2          0.28765      0.07908      0.64453  1.0000
  O2          0.08195      0.77593      0.47854  1.0000
  O2          0.19043      0.28685      0.81020  1.0000
  O3          0.67290      0.87522      0.14676  1.0000
  O2          0.19313      0.88119      0.35425  1.0000
  O2          0.68636      0.78654      0.01795  1.0000
  O2          0.08482      0.28501      0.68532  1.0000
  O2          0.78304      0.08252      0.85261  1.0000
  O2          0.28598      0.18500      0.51869  1.0000
  O2          0.87721      0.68746      0.18284  1.0000
  O2          0.30694      0.62445      0.24710  1.0000
  O2          0.34046      0.65872      0.58150  1.0000
  O2          0.30462      0.66206      0.91439  1.0000
  O2          0.66389      0.33771      0.74857  1.0000
  O3          0.60083      0.30169      0.08404  1.0000
  O2          0.66429      0.30388      0.41562  1.0000
  O2          0.36288      0.31960      0.96699  1.0000
  O2          0.65858      0.02308      0.30232  1.0000
  O2          0.94073      0.60798      0.63610  1.0000
  O2          0.60921      0.64962      0.46801  1.0000
  O2          0.31575      0.93989      0.80217  1.0000
  O2          0.00601      0.35258      0.13212  1.0000
  O2          0.31505      0.35085      0.35984  1.0000
  O2          0.02645      0.65580      0.02664  1.0000
  O2          0.61260      0.93931      0.69418  1.0000
  O2          0.65578      0.61270      0.85941  1.0000
  O2          0.94059      0.31099      0.52761  1.0000
  O2          0.35411      0.02141      0.19653  1.0000
  O3          0.74798      0.27836      0.00205  1.0000
  O2          0.68184      0.44417      0.34194  1.0000
  O2          0.51877      0.21087      0.67536  1.0000
  O2          0.21343      0.67623      0.50874  1.0000
  O2          0.28883      0.51847      0.84051  1.0000
  O3          0.43344      0.73546      0.17109  1.0000
  O2          0.28873      0.74747      0.31874  1.0000
  O2          0.45344      0.68609      0.98673  1.0000
  O2          0.21637      0.51557      0.65414  1.0000
  O2          0.68405      0.21424      0.82124  1.0000
  O2          0.51701      0.28436      0.48763  1.0000
  O2          0.73855      0.45705      0.15124  1.0000
  O3          0.76972      0.54349      0.01863  1.0000
  O2          0.45025      0.22590      0.35993  1.0000
  O2          0.73757      0.19848      0.69304  1.0000
  O2          0.20032      0.44506      0.52617  1.0000
  O2          0.52054      0.73735      0.85890  1.0000
  O2          0.23090      0.76402      0.19448  1.0000
  O2          0.51838      0.76512      0.30183  1.0000
  O2          0.23553      0.45136      0.96982  1.0000
  O2          0.20001      0.73091      0.63704  1.0000
  O2          0.45207      0.19842      0.80385  1.0000
  O2          0.73332      0.51540      0.47070  1.0000
  O2          0.75284      0.24108      0.13356  1.0000
  O2          0.21687      0.31086      0.89502  1.0000
  O3          0.67768      0.88911      0.23235  1.0000
  O2          0.07503      0.74851      0.56333  1.0000
  O2          0.75379      0.65434      0.39614  1.0000
  O2          0.30879      0.07383      0.72964  1.0000
  O2          0.87449      0.21323      0.06076  1.0000
  O2          0.30678      0.21205      0.43360  1.0000
  O2          0.88142      0.65952      0.09677  1.0000
  O2          0.75488      0.07535      0.76733  1.0000
  O2          0.66357      0.75496      0.93277  1.0000
  O2          0.07668      0.30544      0.60048  1.0000
  O2          0.21979      0.88642      0.26779  1.0000
  O2          0.57161      0.54790      0.98861  1.0000
  O2          0.42979      0.99966      0.32085  1.0000
  O2          0.95786      0.39654      0.65598  1.0000
  O2          0.39639      0.42188      0.48853  1.0000
  O2          0.54469      0.95633      0.82239  1.0000
  O2          0.99269      0.56437      0.15085  1.0000
  O2          0.54422      0.56597      0.34029  1.0000
  O2          0.00250      0.42498      0.00772  1.0000
  O2          0.39691      0.95183      0.67406  1.0000
  O2          0.42825      0.39793      0.84026  1.0000
  O2          0.95380      0.53889      0.50769  1.0000
  O3          0.57357      0.02701      0.17091  1.0000
  O2          0.56649      0.14185      0.24973  1.0000
  O2          0.81875      0.39866      0.58224  1.0000
  O2          0.57320      0.40963      0.91450  1.0000
  O2          0.40310      0.81746      0.74836  1.0000
  O2          0.13389      0.56039      0.08094  1.0000
  O2          0.39936      0.55988      0.41423  1.0000
  F           0.46287      0.88378      0.23775  1.0000
  F           0.08079      0.52910      0.58056  1.0000
  F           0.43447      0.53813      0.91282  1.0000
  F           0.53441      0.07909      0.74724  1.0000
  F           0.84240      0.42720      0.07129  1.0000
  F           0.53137      0.42992      0.41335  1.0000
