data_cif

_audit_creation_method             'generated by GULP'

_symmetry_space_group_name_H-M     'P 1'
_symmetry_Int_Tables_number        1
_symmetry_cell_setting             triclinic

_cell_length_a                       11.9296
_cell_length_b                       12.0457
_cell_length_c                       29.4572
_cell_angle_alpha                   90.3130
_cell_angle_beta                    90.5009
_cell_angle_gamma                  120.3792

loop_
_atom_site_label
_atom_site_fract_x
_atom_site_fract_y
_atom_site_fract_z
_atom_site_occupancy
  Ge          0.69960      0.37570      0.03389  1.0000
  Si          0.60520      0.31573      0.36420  1.0000
  Si          0.65655      0.28393      0.70070  1.0000
  Si          0.27682      0.60870      0.52752  1.0000
  Si          0.35971      0.66043      0.86218  1.0000
  Si          0.30231      0.69469      0.19688  1.0000
  Si          0.35690      0.68906      0.29745  1.0000
  Si          0.30561      0.61025      0.96243  1.0000
  Si          0.27591      0.66358      0.62986  1.0000
  Si          0.60193      0.28113      0.80131  1.0000
  Si          0.66538      0.37130      0.46584  1.0000
  Si          0.66940      0.30735      0.13188  1.0000
  Si          0.51932      0.40923      0.96730  1.0000
  Si          0.56571      0.10133      0.30114  1.0000
  Si          0.85420      0.45419      0.63294  1.0000
  Si          0.45139      0.57134      0.46336  1.0000
  Si          0.39517      0.86922      0.79802  1.0000
  Si          0.09243      0.52274      0.12928  1.0000
  Si          0.39731      0.51813      0.36190  1.0000
  Si          0.09251      0.57366      0.02611  1.0000
  Si          0.44812      0.87465      0.69654  1.0000
  Si          0.56683      0.45759      0.86479  1.0000
  Ge          0.88343      0.41967      0.53378  1.0000
  Si          0.51018      0.10123      0.19966  1.0000
  Si          0.28455      0.38427      0.84823  1.0000
  Si          0.58232      0.89565      0.18278  1.0000
  Si          0.07526      0.69125      0.51006  1.0000
  Si          0.67887      0.59061      0.34843  1.0000
  Si          0.37696      0.08176      0.68371  1.0000
  Si          0.87976      0.28494      0.01027  1.0000
  Si          0.38295      0.29376      0.47784  1.0000
  Si          0.87682      0.59279      0.14230  1.0000
  Si          0.67835      0.07988      0.81367  1.0000
  Si          0.58547      0.68958      0.97819  1.0000
  Si          0.07057      0.38255      0.64486  1.0000
  Si          0.28244      0.89068      0.31362  1.0000
  Si          0.23841      0.33211      0.94875  1.0000
  Si          0.64022      0.89997      0.28367  1.0000
  Si          0.06029      0.73397      0.61336  1.0000
  Si          0.73143      0.64985      0.44936  1.0000
  Si          0.31895      0.07060      0.78422  1.0000
  Si          0.88709      0.24062      0.11362  1.0000
  Si          0.32227      0.24229      0.37719  1.0000
  Si          0.89173      0.65820      0.03998  1.0000
  Si          0.72874      0.07606      0.71288  1.0000
  Si          0.64239      0.73515      0.87753  1.0000
  Si          0.06396      0.32095      0.54252  1.0000
  Si          0.22943      0.90012      0.21305  1.0000
  Si          0.96045      0.11204      0.96243  1.0000
  Si          0.85681      0.83587      0.29684  1.0000
  Si          0.13026      0.01590      0.63013  1.0000
  Si          0.01313      0.87355      0.46233  1.0000
  Si          0.10334      0.13546      0.79649  1.0000
  Si          0.82969      0.96494      0.13093  1.0000
  Si          0.10381      0.96192      0.36184  1.0000
  Si          0.83545      0.87644      0.02945  1.0000
  Si          0.00885      0.13714      0.69525  1.0000
  Si          0.86168      0.01302      0.86218  1.0000
  Si          0.13887      0.11202      0.52910  1.0000
  Si          0.94876      0.84051      0.19546  1.0000
  O2          0.91509      0.99762      0.99769  1.0000
  O2          0.98451      0.91885      0.32724  1.0000
  O2          0.04662      0.05797      0.66068  1.0000
  O2          0.05448      0.99361      0.49547  1.0000
  O2          0.97788      0.05570      0.82713  1.0000
  O2          0.91224      0.92551      0.16348  1.0000
  O2          0.31941      0.56596      0.32918  1.0000
  O2          0.39842      0.75003      0.66295  1.0000
  O2          0.21952      0.64800      0.99478  1.0000
  O2          0.64243      0.40461      0.83380  1.0000
  O2          0.56041      0.22931      0.16963  1.0000
  O3          0.74527      0.33318      0.49775  1.0000
  O3          0.56180      0.33319      0.99908  1.0000
  O2          0.74211      0.41166      0.67085  1.0000
  O2          0.64357      0.22795      0.33314  1.0000
  O2          0.40113      0.64655      0.49613  1.0000
  O2          0.21695      0.57294      0.16268  1.0000
  O2          0.31918      0.74293      0.82926  1.0000
  O2          0.11465      0.20402      0.96904  1.0000
  O2          0.76656      0.89892      0.30373  1.0000
  O2          0.06612      0.86167      0.63435  1.0000
  O2          0.85948      0.77767      0.46924  1.0000
  O2          0.19179      0.07022      0.80354  1.0000
  O2          0.89068      0.11897      0.13529  1.0000
  O2          0.19605      0.11510      0.35618  1.0000
  O2          0.90814      0.79491      0.02474  1.0000
  O2          0.85330      0.07419      0.69199  1.0000
  O2          0.76984      0.85918      0.85695  1.0000
  O2          0.07669      0.20194      0.52439  1.0000
  O2          0.10397      0.90277      0.19274  1.0000
  O2          0.90124      0.84539      0.24535  1.0000
  O2          0.12545      0.05676      0.57916  1.0000
  O2          0.92256      0.05261      0.91222  1.0000
  O2          0.05615      0.12509      0.74481  1.0000
  O2          0.84238      0.92609      0.08036  1.0000
  O2          0.04553      0.92488      0.41161  1.0000
  O2          0.89128      0.19450      0.97217  1.0000
  O2          0.77693      0.68590      0.30995  1.0000
  O2          0.28080      0.08549      0.64524  1.0000
  O2          0.09290      0.80167      0.47442  1.0000
  O2          0.18636      0.28624      0.80929  1.0000
  O2          0.67806      0.89454      0.14403  1.0000
  O2          0.18554      0.89077      0.35202  1.0000
  O2          0.68348      0.79067      0.01648  1.0000
  O2          0.07520      0.28825      0.68308  1.0000
  O2          0.77681      0.08068      0.85224  1.0000
  O2          0.29034      0.19503      0.51673  1.0000
  O2          0.87932      0.69091      0.18061  1.0000
  O2          0.30050      0.63388      0.24638  1.0000
  O2          0.32638      0.65953      0.57931  1.0000
  O2          0.30114      0.66300      0.91189  1.0000
  O2          0.65635      0.33812      0.75125  1.0000
  O3          0.60474      0.29874      0.08394  1.0000
  O2          0.66421      0.32012      0.41412  1.0000
  O2          0.36071      0.32385      0.96711  1.0000
  O2          0.65257      0.03207      0.30298  1.0000
  O2          0.92942      0.61245      0.63260  1.0000
  O2          0.60856      0.66148      0.46674  1.0000
  O2          0.30720      0.93723      0.80111  1.0000
  O2          0.01965      0.36736      0.13080  1.0000
  O2          0.30985      0.36194      0.35799  1.0000
  O2          0.02476      0.66107      0.02484  1.0000
  O2          0.60509      0.94441      0.69316  1.0000
  O2          0.65246      0.61308      0.85956  1.0000
  O3          0.93187      0.30260      0.52355  1.0000
  O2          0.35293      0.03170      0.19512  1.0000
  O3          0.74633      0.27860      0.00166  1.0000
  O2          0.67724      0.45653      0.34053  1.0000
  O2          0.51304      0.21458      0.67687  1.0000
  O2          0.20898      0.68561      0.50752  1.0000
  O2          0.28529      0.51737      0.83907  1.0000
  O2          0.44542      0.76311      0.17417  1.0000
  O2          0.28124      0.75646      0.31972  1.0000
  O2          0.45058      0.68991      0.98480  1.0000
  O2          0.20396      0.51979      0.65032  1.0000
  O2          0.67799      0.21254      0.82227  1.0000
  O2          0.51734      0.29605      0.48509  1.0000
  O2          0.74526      0.45743      0.15020  1.0000
  O3          0.76684      0.54303      0.01763  1.0000
  O2          0.44792      0.24023      0.35851  1.0000
  O2          0.73250      0.20420      0.69476  1.0000
  O2          0.18692      0.45431      0.52435  1.0000
  O2          0.51707      0.73727      0.85742  1.0000
  O2          0.22419      0.77252      0.19267  1.0000
  O2          0.51384      0.77367      0.30235  1.0000
  O2          0.23257      0.45510      0.96816  1.0000
  O2          0.18462      0.72638      0.63081  1.0000
  O2          0.44507      0.19529      0.80542  1.0000
  O2          0.73127      0.52736      0.47035  1.0000
  O2          0.76341      0.24460      0.13253  1.0000
  O2          0.21318      0.31219      0.89440  1.0000
  O2          0.65710      0.89901      0.22927  1.0000
  O2          0.06091      0.74803      0.55912  1.0000
  O2          0.75115      0.66543      0.39499  1.0000
  O2          0.30224      0.07595      0.72992  1.0000
  O2          0.88543      0.22416      0.05926  1.0000
  O2          0.30398      0.22320      0.43144  1.0000
  O2          0.87968      0.66070      0.09518  1.0000
  O2          0.74862      0.07646      0.76720  1.0000
  O2          0.66109      0.75720      0.93186  1.0000
  O2          0.06669      0.31288      0.59768  1.0000
  O2          0.21147      0.89733      0.26737  1.0000
  O2          0.56926      0.55202      0.98874  1.0000
  O2          0.42404      0.01410      0.32353  1.0000
  O2          0.94894      0.40259      0.65225  1.0000
  O2          0.39385      0.43163      0.48690  1.0000
  O2          0.53771      0.95459      0.82140  1.0000
  O2          0.00067      0.57426      0.14844  1.0000
  O2          0.53936      0.57822      0.33887  1.0000
  O2          0.00124      0.43143      0.00495  1.0000
  O2          0.38673      0.95474      0.67364  1.0000
  O2          0.42424      0.39671      0.84084  1.0000
  O3          0.95111      0.55931      0.49749  1.0000
  O2          0.57009      0.02174      0.17509  1.0000
  O2          0.56350      0.15318      0.25061  1.0000
  O3          0.79066      0.39764      0.58477  1.0000
  O2          0.57151      0.41285      0.91587  1.0000
  O2          0.39483      0.81796      0.74664  1.0000
  O2          0.13859      0.57001      0.07798  1.0000
  O2          0.39508      0.57129      0.41274  1.0000
  F           0.42999      0.89205      0.24685  1.0000
  F           0.03077      0.51222      0.57028  1.0000
  F           0.43254      0.54009      0.91216  1.0000
  F           0.52646      0.07793      0.74738  1.0000
  F           0.84612      0.43153      0.06997  1.0000
  F           0.52557      0.44594      0.41202  1.0000
