data_cif

_audit_creation_method             'generated by GULP'

_symmetry_space_group_name_H-M     'P 1'
_symmetry_Int_Tables_number        1
_symmetry_cell_setting             triclinic

_cell_length_a                       11.9515
_cell_length_b                       12.0270
_cell_length_c                       29.4369
_cell_angle_alpha                   90.0225
_cell_angle_beta                    90.4476
_cell_angle_gamma                  120.2760

loop_
_atom_site_label
_atom_site_fract_x
_atom_site_fract_y
_atom_site_fract_z
_atom_site_occupancy
  Ge          0.69960      0.37570      0.03389  1.0000
  Si          0.59713      0.30678      0.36478  1.0000
  Si          0.66096      0.28572      0.69902  1.0000
  Si          0.27437      0.60779      0.52889  1.0000
  Si          0.36120      0.66284      0.86211  1.0000
  Si          0.30065      0.69165      0.19630  1.0000
  Si          0.35324      0.68307      0.29684  1.0000
  Si          0.30701      0.61058      0.96253  1.0000
  Si          0.28234      0.66113      0.63010  1.0000
  Si          0.60296      0.28329      0.79925  1.0000
  Si          0.65188      0.36614      0.46539  1.0000
  Si          0.66912      0.30600      0.13208  1.0000
  Si          0.51949      0.40863      0.96693  1.0000
  Si          0.56092      0.09438      0.30158  1.0000
  Si          0.86833      0.45266      0.63280  1.0000
  Si          0.44282      0.56770      0.46309  1.0000
  Si          0.39739      0.87179      0.79720  1.0000
  Si          0.09123      0.52051      0.12912  1.0000
  Si          0.39063      0.50981      0.36128  1.0000
  Si          0.09305      0.57378      0.02591  1.0000
  Si          0.45193      0.87284      0.69559  1.0000
  Si          0.56781      0.45792      0.86418  1.0000
  Si          0.86376      0.40466      0.53080  1.0000
  Si          0.50859      0.09880      0.19996  1.0000
  Si          0.28623      0.38630      0.84869  1.0000
  Si          0.58046      0.89267      0.18295  1.0000
  Si          0.07291      0.68598      0.51673  1.0000
  Si          0.67236      0.58245      0.34805  1.0000
  Si          0.38405      0.08325      0.68141  1.0000
  Si          0.88020      0.28564      0.01032  1.0000
  Si          0.37247      0.28863      0.47855  1.0000
  Si          0.87645      0.59098      0.14246  1.0000
  Si          0.67918      0.08156      0.81385  1.0000
  Si          0.58580      0.68904      0.97817  1.0000
  Si          0.08014      0.38324      0.64452  1.0000
  Si          0.27838      0.88404      0.31336  1.0000
  Si          0.23914      0.33214      0.94921  1.0000
  Si          0.63625      0.89352      0.28394  1.0000
  Si          0.07082      0.73075      0.61811  1.0000
  Si          0.72256      0.64487      0.44873  1.0000
  Si          0.32084      0.07289      0.78150  1.0000
  Si          0.88607      0.23884      0.11370  1.0000
  Si          0.31470      0.23306      0.37775  1.0000
  Si          0.89227      0.65790      0.04004  1.0000
  Si          0.73007      0.07658      0.71321  1.0000
  Si          0.64297      0.73580      0.87741  1.0000
  Si          0.06572      0.32715      0.54331  1.0000
  Si          0.22783      0.89748      0.21278  1.0000
  Si          0.96083      0.11258      0.96291  1.0000
  Si          0.85258      0.82885      0.29726  1.0000
  Ge          0.13096      0.01301      0.63071  1.0000
  Si          0.00334      0.86310      0.46379  1.0000
  Si          0.10529      0.13738      0.79761  1.0000
  Si          0.82811      0.96236      0.13128  1.0000
  Si          0.09789      0.95116      0.36274  1.0000
  Si          0.83459      0.87533      0.02972  1.0000
  Si          0.00946      0.13797      0.69674  1.0000
  Si          0.86233      0.01411      0.86278  1.0000
  Si          0.12323      0.10832      0.52784  1.0000
  Si          0.94765      0.83775      0.19587  1.0000
  O2          0.91493      0.99898      0.99889  1.0000
  O2          0.97761      0.90896      0.32886  1.0000
  O3          0.04074      0.05161      0.66492  1.0000
  O2          0.04535      0.98949      0.49343  1.0000
  O2          0.98239      0.05712      0.82952  1.0000
  O2          0.90999      0.92307      0.16434  1.0000
  O2          0.31408      0.55795      0.32813  1.0000
  O2          0.40667      0.74815      0.66277  1.0000
  O2          0.22039      0.64821      0.99477  1.0000
  O2          0.64202      0.40542      0.83232  1.0000
  O2          0.56008      0.22777      0.17005  1.0000
  O2          0.73615      0.32865      0.49862  1.0000
  O3          0.56269      0.33299      0.99895  1.0000
  O2          0.74638      0.40785      0.66633  1.0000
  O2          0.63698      0.21968      0.33420  1.0000
  O2          0.39484      0.64555      0.49488  1.0000
  O2          0.21576      0.57042      0.16225  1.0000
  O2          0.32115      0.74584      0.82909  1.0000
  O2          0.11485      0.20347      0.96924  1.0000
  O2          0.76223      0.89194      0.30392  1.0000
  O3          0.06838      0.85100      0.63985  1.0000
  O2          0.84861      0.77211      0.46902  1.0000
  O2          0.19450      0.07213      0.80173  1.0000
  O2          0.88930      0.11648      0.13533  1.0000
  O2          0.18856      0.10518      0.35768  1.0000
  O2          0.90824      0.79475      0.02474  1.0000
  O2          0.85529      0.07800      0.69258  1.0000
  O2          0.77024      0.86048      0.85696  1.0000
  O2          0.06204      0.20081      0.52207  1.0000
  O2          0.10264      0.90064      0.19268  1.0000
  O2          0.90121      0.84171      0.24615  1.0000
  O3          0.10394      0.04870      0.57687  1.0000
  O2          0.92014      0.05129      0.91322  1.0000
  O2          0.05336      0.12840      0.74711  1.0000
  O2          0.84010      0.92197      0.08098  1.0000
  O2          0.04224      0.90863      0.41258  1.0000
  O2          0.89290      0.19640      0.97222  1.0000
  O2          0.77052      0.67763      0.30938  1.0000
  O3          0.29434      0.09031      0.64167  1.0000
  O2          0.07360      0.78415      0.47871  1.0000
  O2          0.18840      0.28801      0.81023  1.0000
  O2          0.67677      0.89251      0.14437  1.0000
  O2          0.18065      0.88213      0.35169  1.0000
  O2          0.68351      0.78970      0.01642  1.0000
  O2          0.08450      0.28820      0.68259  1.0000
  O2          0.77821      0.08265      0.85234  1.0000
  O2          0.27658      0.19214      0.51721  1.0000
  O2          0.87887      0.68849      0.18096  1.0000
  O2          0.29811      0.62941      0.24574  1.0000
  O2          0.33662      0.66355      0.57912  1.0000
  O2          0.30302      0.66470      0.91205  1.0000
  O2          0.66209      0.34232      0.74943  1.0000
  O3          0.60482      0.29836      0.08422  1.0000
  O2          0.65379      0.30886      0.41540  1.0000
  O2          0.36125      0.32331      0.96742  1.0000
  O2          0.64784      0.02513      0.30353  1.0000
  O2          0.93819      0.60776      0.63554  1.0000
  O2          0.59984      0.65542      0.46598  1.0000
  O2          0.31014      0.94058      0.79975  1.0000
  O2          0.01823      0.36502      0.13095  1.0000
  O2          0.30345      0.35353      0.35832  1.0000
  O2          0.02531      0.66138      0.02484  1.0000
  O2          0.60879      0.94396      0.69382  1.0000
  O2          0.65322      0.61380      0.85947  1.0000
  O2          0.93226      0.31793      0.52598  1.0000
  O2          0.35178      0.02966      0.19531  1.0000
  O3          0.74704      0.27924      0.00174  1.0000
  O2          0.67189      0.44833      0.34132  1.0000
  O2          0.51825      0.21819      0.67572  1.0000
  O2          0.20539      0.68348      0.50776  1.0000
  O2          0.28687      0.51959      0.83946  1.0000
  O2          0.44401      0.76073      0.17395  1.0000
  O2          0.27714      0.74950      0.31934  1.0000
  O2          0.45118      0.68949      0.98513  1.0000
  O2          0.21552      0.51743      0.65157  1.0000
  O2          0.67678      0.21368      0.82160  1.0000
  O2          0.50766      0.29108      0.48699  1.0000
  O2          0.74506      0.45572      0.15054  1.0000
  O3          0.76765      0.54341      0.01778  1.0000
  O2          0.44039      0.23134      0.35891  1.0000
  O2          0.73453      0.20428      0.69419  1.0000
  O2          0.19190      0.45212      0.52349  1.0000
  O2          0.51811      0.73833      0.85738  1.0000
  O2          0.22364      0.77067      0.19220  1.0000
  O2          0.50978      0.76651      0.30241  1.0000
  O2          0.23346      0.45521      0.96872  1.0000
  O2          0.19926      0.73263      0.63637  1.0000
  O2          0.44600      0.20002      0.80167  1.0000
  O2          0.72456      0.52183      0.46944  1.0000
  O2          0.76246      0.24248      0.13278  1.0000
  O2          0.21470      0.31349      0.89493  1.0000
  O2          0.65385      0.89408      0.22954  1.0000
  O2          0.07361      0.75631      0.56373  1.0000
  O2          0.74278      0.65950      0.39435  1.0000
  O2          0.30248      0.07402      0.72681  1.0000
  O2          0.88515      0.22363      0.05935  1.0000
  O2          0.29729      0.21631      0.43211  1.0000
  O2          0.87994      0.65983      0.09534  1.0000
  O2          0.74943      0.07781      0.76759  1.0000
  O2          0.66128      0.75730      0.93177  1.0000
  O2          0.07274      0.30910      0.59756  1.0000
  O2          0.20881      0.89275      0.26711  1.0000
  O2          0.57011      0.55123      0.98858  1.0000
  O2          0.41916      0.00715      0.32380  1.0000
  O2          0.95456      0.39590      0.65429  1.0000
  O2          0.38641      0.42772      0.48653  1.0000
  O2          0.53862      0.95624      0.82124  1.0000
  O2          0.99995      0.57214      0.14861  1.0000
  O2          0.53224      0.56732      0.33837  1.0000
  O2          0.00139      0.43203      0.00488  1.0000
  O2          0.39564      0.95698      0.67199  1.0000
  O2          0.42535      0.39854      0.84100  1.0000
  O2          0.94507      0.54700      0.50850  1.0000
  O2          0.56844      0.01922      0.17557  1.0000
  O2          0.56030      0.14864      0.25118  1.0000
  O2          0.81152      0.39983      0.58198  1.0000
  O2          0.57159      0.41199      0.91540  1.0000
  O2          0.39743      0.81948      0.74616  1.0000
  O2          0.13781      0.56862      0.07787  1.0000
  O2          0.38944      0.56434      0.41176  1.0000
  F           0.42740      0.88733      0.24735  1.0000
  F           0.07583      0.53317      0.57999  1.0000
  F           0.43317      0.54060      0.91286  1.0000
  F           0.52794      0.08130      0.74669  1.0000
  F           0.84544      0.43038      0.07018  1.0000
  F           0.52187      0.43539      0.41269  1.0000
