data_cif

_audit_creation_method             'generated by GULP'

_symmetry_space_group_name_H-M     'P 1'
_symmetry_Int_Tables_number        1
_symmetry_cell_setting             triclinic

_cell_length_a                       11.8996
_cell_length_b                       11.9967
_cell_length_c                       29.4768
_cell_angle_alpha                   89.7883
_cell_angle_beta                    90.7130
_cell_angle_gamma                  119.8674

loop_
_atom_site_label
_atom_site_fract_x
_atom_site_fract_y
_atom_site_fract_z
_atom_site_occupancy
  Ge          0.69960      0.37570      0.03389  1.0000
  Si          0.58844      0.30345      0.36625  1.0000
  Si          0.65408      0.28236      0.69794  1.0000
  Si          0.26426      0.60225      0.52954  1.0000
  Si          0.35896      0.65784      0.86092  1.0000
  Si          0.29211      0.68311      0.19394  1.0000
  Si          0.34188      0.67820      0.29685  1.0000
  Si          0.30486      0.60593      0.96090  1.0000
  Si          0.27419      0.66083      0.63007  1.0000
  Si          0.60118      0.27978      0.79858  1.0000
  Si          0.64293      0.36175      0.46668  1.0000
  Si          0.67600      0.31080      0.13204  1.0000
  Si          0.51702      0.40407      0.96598  1.0000
  Si          0.55197      0.09235      0.30292  1.0000
  Si          0.86248      0.45598      0.63352  1.0000
  Si          0.43221      0.56250      0.46342  1.0000
  Si          0.39668      0.86821      0.79637  1.0000
  Si          0.09306      0.51191      0.12686  1.0000
  Si          0.38284      0.50618      0.36183  1.0000
  Si          0.09165      0.56848      0.02428  1.0000
  Si          0.44847      0.87202      0.69472  1.0000
  Si          0.56549      0.45319      0.86343  1.0000
  Si          0.85563      0.40156      0.53199  1.0000
  Si          0.50615      0.10695      0.19934  1.0000
  Si          0.28318      0.38153      0.84748  1.0000
  Si          0.57552      0.89349      0.18189  1.0000
  Si          0.06224      0.68044      0.51621  1.0000
  Si          0.66521      0.57941      0.34908  1.0000
  Si          0.37623      0.08081      0.68166  1.0000
  Si          0.87740      0.28186      0.00901  1.0000
  Si          0.36226      0.28310      0.47898  1.0000
  Si          0.88563      0.59298      0.14287  1.0000
  Si          0.67855      0.07774      0.81204  1.0000
  Si          0.58442      0.68518      0.97710  1.0000
  Si          0.07388      0.38391      0.64642  1.0000
  Si          0.26476      0.88030      0.31696  1.0000
  Si          0.23581      0.32680      0.94793  1.0000
  Si          0.63045      0.89169      0.28429  1.0000
  Si          0.06285      0.73340      0.61693  1.0000
  Si          0.71316      0.64088      0.44980  1.0000
  Si          0.31957      0.07034      0.78212  1.0000
  Si          0.88571      0.23322      0.11205  1.0000
  Si          0.30528      0.22903      0.37817  1.0000
  Si          0.89378      0.65683      0.04055  1.0000
  Si          0.72719      0.07412      0.71131  1.0000
  Si          0.64129      0.73121      0.87642  1.0000
  Si          0.05754      0.32294      0.54578  1.0000
  Ge          0.23981      0.89586      0.21685  1.0000
  Si          0.95755      0.10789      0.96233  1.0000
  Si          0.84700      0.82317      0.29746  1.0000
  Si          0.12595      0.01305      0.63123  1.0000
  Si          0.99210      0.86035      0.46572  1.0000
  Si          0.10210      0.13294      0.79716  1.0000
  Si          0.82419      0.95603      0.13140  1.0000
  Si          0.08801      0.94886      0.36550  1.0000
  Si          0.83182      0.87171      0.02957  1.0000
  Si          0.00759      0.13638      0.69632  1.0000
  Si          0.86028      0.00864      0.86234  1.0000
  Si          0.11649      0.10351      0.53052  1.0000
  Si          0.95353      0.83830      0.19729  1.0000
  O2          0.91215      0.99718      0.99957  1.0000
  O2          0.96884      0.90229      0.33058  1.0000
  O2          0.04753      0.05630      0.66346  1.0000
  O2          0.03361      0.98149      0.49829  1.0000
  O2          0.98121      0.05279      0.82958  1.0000
  O2          0.90121      0.91369      0.16536  1.0000
  O2          0.30653      0.55439      0.32801  1.0000
  O2          0.40033      0.74759      0.66180  1.0000
  O2          0.21791      0.64355      0.99292  1.0000
  O2          0.64091      0.40159      0.83167  1.0000
  O2          0.57187      0.23969      0.17167  1.0000
  O2          0.72697      0.32394      0.50030  1.0000
  O3          0.56213      0.33064      0.99865  1.0000
  O2          0.73861      0.40736      0.66629  1.0000
  O2          0.62840      0.21583      0.33587  1.0000
  O2          0.38384      0.63961      0.49527  1.0000
  O2          0.21859      0.55940      0.15991  1.0000
  O2          0.31968      0.74193      0.82775  1.0000
  O2          0.11191      0.19847      0.96796  1.0000
  O2          0.75403      0.88549      0.30388  1.0000
  O2          0.06378      0.85953      0.63703  1.0000
  O2          0.83736      0.76850      0.47043  1.0000
  O2          0.19278      0.06884      0.80234  1.0000
  O2          0.88757      0.11044      0.13419  1.0000
  O2          0.17855      0.10229      0.35822  1.0000
  O2          0.90811      0.79302      0.02461  1.0000
  O2          0.85309      0.07484      0.69053  1.0000
  O2          0.76865      0.85542      0.85612  1.0000
  O2          0.05323      0.19484      0.52579  1.0000
  O3          0.10385      0.90686      0.19520  1.0000
  O2          0.89423      0.83454      0.24670  1.0000
  O2          0.10874      0.05060      0.58064  1.0000
  O2          0.91565      0.04371      0.91315  1.0000
  O2          0.04748      0.12060      0.74664  1.0000
  O2          0.83247      0.91295      0.08117  1.0000
  O2          0.03006      0.91503      0.41538  1.0000
  O2          0.88965      0.19287      0.97067  1.0000
  O2          0.76354      0.67273      0.31044  1.0000
  O2          0.27879      0.08314      0.64289  1.0000
  O2          0.06200      0.77813      0.47783  1.0000
  O2          0.18475      0.28388      0.80901  1.0000
  O2          0.67235      0.89260      0.14424  1.0000
  O2          0.17494      0.88094      0.35840  1.0000
  O2          0.68146      0.78594      0.01522  1.0000
  O2          0.07824      0.28803      0.68456  1.0000
  O2          0.77713      0.07834      0.85084  1.0000
  O2          0.26738      0.18577      0.51730  1.0000
  O2          0.89134      0.68835      0.18226  1.0000
  O2          0.29075      0.62945      0.24537  1.0000
  O2          0.32748      0.66016      0.57931  1.0000
  O2          0.30015      0.66036      0.91049  1.0000
  O2          0.65576      0.33803      0.74839  1.0000
  O3          0.60762      0.30058      0.08460  1.0000
  O2          0.64597      0.30544      0.41673  1.0000
  O2          0.35887      0.31831      0.96623  1.0000
  O2          0.63765      0.02084      0.30391  1.0000
  O2          0.93153      0.61182      0.63592  1.0000
  O2          0.58898      0.65062      0.46613  1.0000
  O2          0.30925      0.93738      0.79948  1.0000
  O2          0.02094      0.35687      0.12805  1.0000
  O2          0.29563      0.35052      0.35821  1.0000
  O2          0.02362      0.65656      0.02331  1.0000
  O2          0.60544      0.94222      0.69199  1.0000
  O2          0.65125      0.60872      0.85875  1.0000
  O2          0.92357      0.31341      0.52804  1.0000
  O3          0.35399      0.04593      0.19307  1.0000
  O3          0.74534      0.27878      0.00085  1.0000
  O2          0.66285      0.44412      0.34238  1.0000
  O2          0.51039      0.21478      0.67464  1.0000
  O2          0.19502      0.67776      0.50759  1.0000
  O2          0.28389      0.51518      0.83809  1.0000
  O2          0.43975      0.76123      0.17513  1.0000
  O2          0.26674      0.74539      0.31948  1.0000
  O2          0.44893      0.68516      0.98358  1.0000
  O2          0.20853      0.51845      0.65262  1.0000
  O2          0.67726      0.21051      0.82005  1.0000
  O2          0.49813      0.28592      0.48743  1.0000
  O2          0.75178      0.45989      0.14972  1.0000
  O3          0.76559      0.54375      0.01960  1.0000
  O2          0.43152      0.22658      0.35986  1.0000
  O2          0.72948      0.20165      0.69238  1.0000
  O2          0.18308      0.44641      0.52514  1.0000
  O2          0.51597      0.73372      0.85612  1.0000
  O3          0.20953      0.75384      0.18770  1.0000
  O2          0.49745      0.76911      0.30001  1.0000
  O2          0.23111      0.45065      0.96719  1.0000
  O2          0.19115      0.73394      0.63537  1.0000
  O2          0.44469      0.19589      0.80257  1.0000
  O2          0.71409      0.51714      0.47077  1.0000
  O2          0.76542      0.24188      0.13220  1.0000
  O2          0.21185      0.30872      0.89365  1.0000
  O2          0.64258      0.89673      0.23009  1.0000
  O2          0.06071      0.75132      0.56259  1.0000
  O2          0.73517      0.65500      0.39556  1.0000
  O2          0.30104      0.07470      0.72779  1.0000
  O2          0.88101      0.21703      0.05776  1.0000
  O2          0.28761      0.21235      0.43242  1.0000
  O2          0.89078      0.66356      0.09578  1.0000
  O2          0.74841      0.07462      0.76559  1.0000
  O2          0.65933      0.75266      0.93069  1.0000
  O2          0.06487      0.30793      0.59999  1.0000
  O3          0.18799      0.88854      0.27372  1.0000
  O2          0.56789      0.54677      0.98731  1.0000
  O2          0.41034      0.00086      0.32411  1.0000
  O2          0.94976      0.40028      0.65585  1.0000
  O2          0.37611      0.42233      0.48666  1.0000
  O2          0.53878      0.95244      0.81978  1.0000
  O2          0.00315      0.56342      0.14776  1.0000
  O2          0.52541      0.56716      0.33935  1.0000
  O2          0.00003      0.42691      0.00357  1.0000
  O2          0.38962      0.95568      0.67184  1.0000
  O2          0.42286      0.39379      0.83999  1.0000
  O2          0.93551      0.54142      0.50793  1.0000
  O2          0.55836      0.01743      0.17611  1.0000
  O2          0.55116      0.14424      0.25234  1.0000
  O2          0.80551      0.40217      0.58290  1.0000
  O2          0.56919      0.40679      0.91462  1.0000
  O2          0.39631      0.81746      0.74520  1.0000
  O2          0.13879      0.56285      0.07590  1.0000
  O2          0.37863      0.55970      0.41203  1.0000
  F           0.38600      0.88916      0.24310  1.0000
  F           0.06757      0.53148      0.58016  1.0000
  F           0.43018      0.53608      0.91128  1.0000
  F           0.52688      0.07908      0.74579  1.0000
  F           0.84765      0.42794      0.06925  1.0000
  F           0.51215      0.43121      0.41257  1.0000
