data_cif

_audit_creation_method             'generated by GULP'

_symmetry_space_group_name_H-M     'P 1'
_symmetry_Int_Tables_number        1
_symmetry_cell_setting             triclinic

_cell_length_a                       11.9357
_cell_length_b                       12.0108
_cell_length_c                       29.4448
_cell_angle_alpha                   90.0990
_cell_angle_beta                    90.3850
_cell_angle_gamma                  120.0981

loop_
_atom_site_label
_atom_site_fract_x
_atom_site_fract_y
_atom_site_fract_z
_atom_site_occupancy
  Ge          0.69960      0.37570      0.03389  1.0000
  Si          0.59602      0.30476      0.36449  1.0000
  Si          0.65828      0.28248      0.69677  1.0000
  Si          0.27138      0.60358      0.52844  1.0000
  Si          0.35839      0.65934      0.86053  1.0000
  Si          0.29825      0.68856      0.19598  1.0000
  Si          0.35085      0.68088      0.29660  1.0000
  Si          0.30813      0.61316      0.96132  1.0000
  Si          0.27817      0.66189      0.62912  1.0000
  Si          0.60405      0.28105      0.79744  1.0000
  Si          0.65074      0.36355      0.46504  1.0000
  Si          0.66940      0.30402      0.13163  1.0000
  Si          0.52509      0.41187      0.96537  1.0000
  Si          0.55844      0.09183      0.30145  1.0000
  Si          0.86685      0.45574      0.63189  1.0000
  Si          0.44122      0.56467      0.46271  1.0000
  Si          0.39854      0.86975      0.79599  1.0000
  Si          0.09070      0.51766      0.12819  1.0000
  Si          0.38922      0.50809      0.36091  1.0000
  Si          0.09463      0.57469      0.02534  1.0000
  Si          0.45179      0.87292      0.69422  1.0000
  Si          0.56670      0.45454      0.86232  1.0000
  Si          0.86225      0.40147      0.53017  1.0000
  Si          0.50719      0.09740      0.19985  1.0000
  Si          0.28340      0.38241      0.84780  1.0000
  Si          0.57793      0.88993      0.18329  1.0000
  Si          0.06979      0.68098      0.51486  1.0000
  Si          0.67105      0.58019      0.34790  1.0000
  Si          0.37961      0.08103      0.68064  1.0000
  Si          0.88064      0.28773      0.00809  1.0000
  Si          0.37096      0.28556      0.47791  1.0000
  Si          0.87642      0.58908      0.14236  1.0000
  Si          0.68053      0.07959      0.81150  1.0000
  Si          0.58810      0.69207      0.97533  1.0000
  Si          0.07746      0.38462      0.64475  1.0000
  Si          0.27608      0.88234      0.31337  1.0000
  Si          0.24480      0.33638      0.94872  1.0000
  Si          0.63377      0.89041      0.28408  1.0000
  Si          0.06764      0.73370      0.61568  1.0000
  Si          0.72132      0.64254      0.44858  1.0000
  Si          0.32241      0.07166      0.78129  1.0000
  Si          0.88589      0.23606      0.11117  1.0000
  Si          0.31344      0.23121      0.37711  1.0000
  Si          0.89237      0.65692      0.04009  1.0000
  Si          0.73100      0.07471      0.71071  1.0000
  Si          0.64043      0.73265      0.87412  1.0000
  Si          0.06362      0.32327      0.54404  1.0000
  Si          0.22674      0.89603      0.21271  1.0000
  Ge          0.96380      0.11268      0.96100  1.0000
  Si          0.85104      0.82643      0.29745  1.0000
  Si          0.13036      0.01346      0.62969  1.0000
  Si          0.00182      0.86091      0.46390  1.0000
  Si          0.10533      0.13440      0.79547  1.0000
  Si          0.82523      0.95825      0.13128  1.0000
  Si          0.09608      0.95034      0.36299  1.0000
  Si          0.83354      0.87346      0.02983  1.0000
  Si          0.01172      0.13747      0.69459  1.0000
  Si          0.86078      0.00761      0.85953  1.0000
  Si          0.12437      0.10493      0.52891  1.0000
  Si          0.94655      0.83590      0.19603  1.0000
  O3          0.91946      0.00199      0.00353  1.0000
  O2          0.97472      0.90656      0.32957  1.0000
  O2          0.05043      0.05691      0.66127  1.0000
  O2          0.04365      0.98349      0.49601  1.0000
  O2          0.98041      0.05206      0.82591  1.0000
  O2          0.90824      0.92217      0.16524  1.0000
  O2          0.31203      0.55582      0.32786  1.0000
  O2          0.40347      0.74823      0.66125  1.0000
  O2          0.22188      0.65049      0.99411  1.0000
  O2          0.64212      0.40349      0.83028  1.0000
  O2          0.56067      0.22615      0.16971  1.0000
  O2          0.73419      0.32488      0.49830  1.0000
  O3          0.56461      0.33519      0.99823  1.0000
  O2          0.74266      0.40667      0.66474  1.0000
  O2          0.63554      0.21710      0.33396  1.0000
  O2          0.39237      0.64152      0.49474  1.0000
  O2          0.21426      0.56721      0.16185  1.0000
  O2          0.31986      0.74340      0.82740  1.0000
  O3          0.12633      0.20924      0.96998  1.0000
  O2          0.75988      0.88897      0.30404  1.0000
  O2          0.06798      0.85990      0.63568  1.0000
  O2          0.84699      0.77040      0.46866  1.0000
  O2          0.19599      0.07107      0.80145  1.0000
  O2          0.88875      0.11306      0.13243  1.0000
  O2          0.18728      0.10388      0.35689  1.0000
  O2          0.90670      0.79205      0.02398  1.0000
  O2          0.85687      0.07463      0.69029  1.0000
  O2          0.76579      0.85494      0.85199  1.0000
  O2          0.06034      0.19525      0.52427  1.0000
  O2          0.10154      0.89921      0.19254  1.0000
  O2          0.90100      0.83938      0.24654  1.0000
  O2          0.11514      0.05070      0.57892  1.0000
  O3          0.91902      0.03561      0.90969  1.0000
  O2          0.05694      0.12510      0.74433  1.0000
  O2          0.83030      0.90685      0.08227  1.0000
  O2          0.04249      0.91297      0.41337  1.0000
  O3          0.89089      0.20341      0.96818  1.0000
  O2          0.76940      0.67519      0.30934  1.0000
  O2          0.28272      0.08346      0.64200  1.0000
  O2          0.07056      0.77865      0.47655  1.0000
  O2          0.18524      0.28433      0.80936  1.0000
  O2          0.67478      0.89097      0.14488  1.0000
  O2          0.17818      0.88019      0.35186  1.0000
  O2          0.68482      0.79402      0.01314  1.0000
  O2          0.08109      0.28880      0.68280  1.0000
  O2          0.77938      0.08021      0.85016  1.0000
  O2          0.27565      0.18856      0.51639  1.0000
  O2          0.87861      0.68670      0.18092  1.0000
  O2          0.29594      0.62700      0.24551  1.0000
  O2          0.33280      0.66149      0.57847  1.0000
  O2          0.30155      0.66413      0.91051  1.0000
  O2          0.66010      0.33901      0.74729  1.0000
  O3          0.60460      0.29854      0.08403  1.0000
  O2          0.65305      0.30674      0.41499  1.0000
  O2          0.36774      0.32791      0.96574  1.0000
  O2          0.64538      0.02235      0.30344  1.0000
  O2          0.93593      0.61176      0.63454  1.0000
  O2          0.59805      0.65260      0.46580  1.0000
  O2          0.31158      0.93905      0.79902  1.0000
  O2          0.01733      0.36205      0.12909  1.0000
  O2          0.30228      0.35193      0.35786  1.0000
  O2          0.02644      0.66208      0.02502  1.0000
  O2          0.60865      0.94264      0.69155  1.0000
  O2          0.65012      0.60991      0.85679  1.0000
  O2          0.93003      0.31342      0.52624  1.0000
  O2          0.35038      0.02821      0.19513  1.0000
  O3          0.74632      0.28055      0.00108  1.0000
  O2          0.67078      0.44606      0.34099  1.0000
  O2          0.51455      0.21467      0.67377  1.0000
  O2          0.20270      0.67885      0.50652  1.0000
  O2          0.28370      0.51569      0.83824  1.0000
  O2          0.44189      0.75818      0.17391  1.0000
  O2          0.27455      0.74743      0.31914  1.0000
  O2          0.45345      0.69271      0.98270  1.0000
  O2          0.21186      0.51936      0.65154  1.0000
  O2          0.67966      0.21264      0.81954  1.0000
  O2          0.50633      0.28829      0.48636  1.0000
  O2          0.74598      0.45324      0.15059  1.0000
  O3          0.76768      0.54280      0.01788  1.0000
  O2          0.43936      0.22946      0.35839  1.0000
  O2          0.73327      0.20164      0.69153  1.0000
  O2          0.18943      0.44755      0.52377  1.0000
  O2          0.51472      0.73448      0.85479  1.0000
  O2          0.22212      0.76877      0.19211  1.0000
  O2          0.50722      0.76376      0.30249  1.0000
  O2          0.23644      0.45844      0.96814  1.0000
  O2          0.19552      0.73508      0.63444  1.0000
  O2          0.44761      0.19776      0.80156  1.0000
  O2          0.72324      0.51931      0.46929  1.0000
  O2          0.76154      0.23870      0.13050  1.0000
  O2          0.21207      0.31242      0.89453  1.0000
  O2          0.65123      0.89034      0.22973  1.0000
  O2          0.06705      0.75163      0.56132  1.0000
  O2          0.74153      0.65702      0.39422  1.0000
  O2          0.30447      0.07496      0.72692  1.0000
  O2          0.88716      0.22276      0.05663  1.0000
  O2          0.29592      0.21383      0.43144  1.0000
  O2          0.87941      0.65813      0.09538  1.0000
  O2          0.75100      0.07603      0.76510  1.0000
  O2          0.66121      0.75862      0.92836  1.0000
  O2          0.06941      0.30841      0.59832  1.0000
  O2          0.20728      0.89169      0.26704  1.0000
  O2          0.57572      0.55576      0.98584  1.0000
  O2          0.41682      0.00512      0.32383  1.0000
  O2          0.95301      0.39985      0.65433  1.0000
  O2          0.38431      0.42446      0.48596  1.0000
  O2          0.54039      0.95434      0.81956  1.0000
  O2          0.00007      0.56996      0.14807  1.0000
  O2          0.53104      0.56556      0.33815  1.0000
  O2          0.00254      0.43407      0.00380  1.0000
  O2          0.39359      0.95622      0.67119  1.0000
  O2          0.42225      0.39296      0.84050  1.0000
  O2          0.94348      0.54155      0.50639  1.0000
  O2          0.56679      0.01703      0.17582  1.0000
  O2          0.55784      0.14674      0.25116  1.0000
  O2          0.81110      0.40177      0.58114  1.0000
  O2          0.57558      0.41273      0.91371  1.0000
  O2          0.39884      0.81873      0.74478  1.0000
  O2          0.13908      0.56757      0.07719  1.0000
  O2          0.38799      0.56226      0.41147  1.0000
  F           0.42559      0.88536      0.24744  1.0000
  F           0.07304      0.53200      0.57922  1.0000
  F           0.43172      0.53932      0.91102  1.0000
  F           0.53049      0.08034      0.74557  1.0000
  F           0.84596      0.42916      0.07000  1.0000
  F           0.52086      0.43322      0.41228  1.0000
