data_cif

_audit_creation_method             'generated by GULP'

_symmetry_space_group_name_H-M     'P 1'
_symmetry_Int_Tables_number        1
_symmetry_cell_setting             triclinic

_cell_length_a                       11.9557
_cell_length_b                       12.0043
_cell_length_c                       29.4394
_cell_angle_alpha                   89.8858
_cell_angle_beta                    90.3576
_cell_angle_gamma                  120.2592

loop_
_atom_site_label
_atom_site_fract_x
_atom_site_fract_y
_atom_site_fract_z
_atom_site_occupancy
  Ge          0.69960      0.37570      0.03389  1.0000
  Si          0.59852      0.30843      0.36606  1.0000
  Si          0.65837      0.28153      0.69811  1.0000
  Si          0.27466      0.60534      0.53098  1.0000
  Si          0.36426      0.66074      0.86349  1.0000
  Si          0.30052      0.69131      0.19907  1.0000
  Si          0.35383      0.68529      0.29958  1.0000
  Si          0.31243      0.60569      0.96373  1.0000
  Si          0.27841      0.66129      0.63163  1.0000
  Si          0.60557      0.28191      0.79879  1.0000
  Si          0.65369      0.36463      0.46668  1.0000
  Si          0.67148      0.30713      0.13303  1.0000
  Si          0.51892      0.40002      0.96595  1.0000
  Si          0.56088      0.09639      0.30261  1.0000
  Si          0.86777      0.45435      0.63322  1.0000
  Si          0.44532      0.56705      0.46569  1.0000
  Si          0.39988      0.87058      0.79869  1.0000
  Si          0.09288      0.51978      0.13177  1.0000
  Si          0.39273      0.51249      0.36391  1.0000
  Si          0.10297      0.57646      0.02819  1.0000
  Si          0.45111      0.87175      0.69686  1.0000
  Si          0.56900      0.45492      0.86348  1.0000
  Si          0.86513      0.40174      0.53152  1.0000
  Si          0.50864      0.09890      0.20098  1.0000
  Si          0.28767      0.38406      0.84834  1.0000
  Si          0.58027      0.89186      0.18507  1.0000
  Si          0.07351      0.68240      0.51671  1.0000
  Si          0.67413      0.58495      0.35014  1.0000
  Si          0.37947      0.08004      0.68294  1.0000
  Si          0.88681      0.28990      0.01197  1.0000
  Si          0.37449      0.28703      0.48042  1.0000
  Si          0.87748      0.59181      0.14567  1.0000
  Si          0.68215      0.08076      0.81308  1.0000
  Si          0.59026      0.68214      0.97907  1.0000
  Si          0.07743      0.38284      0.64687  1.0000
  Si          0.27836      0.88639      0.31541  1.0000
  Si          0.23979      0.32620      0.94880  1.0000
  Si          0.63670      0.89521      0.28602  1.0000
  Si          0.06886      0.73336      0.61750  1.0000
  Si          0.72482      0.64456      0.45089  1.0000
  Si          0.32308      0.07193      0.78369  1.0000
  Si          0.88860      0.23866      0.11521  1.0000
  Si          0.31658      0.23493      0.37962  1.0000
  Ge          0.89848      0.65882      0.04236  1.0000
  Si          0.73092      0.07376      0.71231  1.0000
  Si          0.64594      0.73315      0.87827  1.0000
  Si          0.06619      0.32399      0.54605  1.0000
  Si          0.22793      0.89805      0.21467  1.0000
  Si          0.95982      0.11335      0.96330  1.0000
  Si          0.85411      0.83254      0.29960  1.0000
  Si          0.13054      0.01278      0.63217  1.0000
  Si          0.00546      0.86273      0.46616  1.0000
  Si          0.10647      0.13524      0.79803  1.0000
  Si          0.82694      0.95993      0.13289  1.0000
  Si          0.09865      0.95425      0.36516  1.0000
  Si          0.83666      0.87599      0.03102  1.0000
  Si          0.01079      0.13507      0.69717  1.0000
  Si          0.86341      0.01289      0.86323  1.0000
  Si          0.12725      0.10612      0.53133  1.0000
  Si          0.94793      0.83738      0.19841  1.0000
  O2          0.90531      0.00206      0.00033  1.0000
  O2          0.97751      0.91160      0.33185  1.0000
  O2          0.05085      0.05475      0.66441  1.0000
  O2          0.04726      0.98456      0.49853  1.0000
  O2          0.98494      0.05616      0.83066  1.0000
  O2          0.90858      0.91928      0.16551  1.0000
  O2          0.31522      0.56066      0.33130  1.0000
  O2          0.40258      0.74669      0.66421  1.0000
  O2          0.23140      0.64584      0.99746  1.0000
  O2          0.64508      0.40531      0.83125  1.0000
  O2          0.56015      0.22675      0.17017  1.0000
  O2          0.73763      0.32542      0.49945  1.0000
  O3          0.56233      0.32440      0.99798  1.0000
  O2          0.74284      0.40545      0.66571  1.0000
  O2          0.63787      0.22211      0.33486  1.0000
  O2          0.39691      0.64380      0.49780  1.0000
  O2          0.21558      0.56896      0.16560  1.0000
  O2          0.32445      0.74505      0.83098  1.0000
  O2          0.11475      0.19757      0.96883  1.0000
  O2          0.76296      0.89486      0.30621  1.0000
  O2          0.06801      0.85874      0.63758  1.0000
  O2          0.85075      0.77169      0.47119  1.0000
  O2          0.19665      0.07140      0.80372  1.0000
  O2          0.88902      0.11468      0.13681  1.0000
  O2          0.19015      0.10816      0.35928  1.0000
  O3          0.91980      0.80781      0.02576  1.0000
  O2          0.85622      0.07279      0.69190  1.0000
  O2          0.77258      0.85884      0.85778  1.0000
  O2          0.06382      0.19669      0.52613  1.0000
  O2          0.10312      0.90141      0.19447  1.0000
  O2          0.90457      0.84811      0.24862  1.0000
  O2          0.11582      0.05217      0.58161  1.0000
  O2          0.91697      0.05034      0.91405  1.0000
  O2          0.05200      0.12098      0.74747  1.0000
  O2          0.83606      0.91985      0.08237  1.0000
  O2          0.04512      0.91575      0.41559  1.0000
  O2          0.90020      0.20488      0.97237  1.0000
  O2          0.77209      0.68077      0.31142  1.0000
  O2          0.28273      0.08255      0.64438  1.0000
  O2          0.07469      0.78069      0.47838  1.0000
  O2          0.18963      0.28699      0.80958  1.0000
  O2          0.67606      0.89070      0.14653  1.0000
  O2          0.18052      0.88427      0.35384  1.0000
  O2          0.68669      0.77817      0.01816  1.0000
  O2          0.08083      0.28676      0.68508  1.0000
  O2          0.78085      0.08207      0.85156  1.0000
  O2          0.27893      0.18943      0.51902  1.0000
  O2          0.88062      0.68629      0.18606  1.0000
  O2          0.29843      0.63019      0.24874  1.0000
  O2          0.33467      0.66254      0.58112  1.0000
  O2          0.30603      0.66090      0.91358  1.0000
  O2          0.66091      0.33914      0.74841  1.0000
  O3          0.60900      0.30251      0.08498  1.0000
  O2          0.65537      0.30880      0.41644  1.0000
  O2          0.36085      0.31462      0.96630  1.0000
  O2          0.64806      0.02745      0.30480  1.0000
  O2          0.93673      0.61053      0.63597  1.0000
  O2          0.60220      0.65472      0.46856  1.0000
  O2          0.31255      0.93929      0.80178  1.0000
  O2          0.01879      0.36388      0.13401  1.0000
  O2          0.30553      0.35614      0.36073  1.0000
  O3          0.04356      0.66928      0.02665  1.0000
  O2          0.60785      0.94120      0.69383  1.0000
  O2          0.65496      0.61121      0.85942  1.0000
  O2          0.93311      0.31402      0.52782  1.0000
  O2          0.35195      0.02973      0.19655  1.0000
  O3          0.75208      0.28076      0.00437  1.0000
  O2          0.67340      0.45074      0.34288  1.0000
  O2          0.51448      0.21372      0.67545  1.0000
  O2          0.20669      0.68088      0.50869  1.0000
  O2          0.28967      0.51857      0.83994  1.0000
  O2          0.44363      0.75996      0.17643  1.0000
  O2          0.27753      0.75189      0.32182  1.0000
  O2          0.45667      0.68403      0.98578  1.0000
  O2          0.21155      0.51798      0.65386  1.0000
  O2          0.68151      0.21398      0.82081  1.0000
  O2          0.50952      0.28907      0.48838  1.0000
  O2          0.74693      0.45463      0.15318  1.0000
  O1          0.76524      0.54000      0.01727  1.0000
  O2          0.44188      0.23323      0.36040  1.0000
  O2          0.73294      0.20046      0.69279  1.0000
  O2          0.19267      0.44911      0.52613  1.0000
  O2          0.52121      0.73711      0.85908  1.0000
  O2          0.22358      0.77049      0.19464  1.0000
  O2          0.51026      0.76872      0.30504  1.0000
  O2          0.23648      0.44964      0.96936  1.0000
  O2          0.19606      0.73459      0.63669  1.0000
  O2          0.44905      0.19830      0.80350  1.0000
  O2          0.72657      0.52056      0.47115  1.0000
  O2          0.76349      0.24243      0.13248  1.0000
  O2          0.21541      0.30983      0.89448  1.0000
  O2          0.65373      0.89370      0.23163  1.0000
  O2          0.07003      0.75255      0.56312  1.0000
  O2          0.74494      0.66077      0.39649  1.0000
  O2          0.30485      0.07452      0.72931  1.0000
  O2          0.89338      0.22813      0.06083  1.0000
  O2          0.29914      0.21605      0.43396  1.0000
  O3          0.88111      0.66799      0.10113  1.0000
  O2          0.75189      0.07647      0.76665  1.0000
  O2          0.66610      0.75150      0.93267  1.0000
  O2          0.07027      0.30762      0.60037  1.0000
  O2          0.20910      0.89445      0.26904  1.0000
  O2          0.57079      0.54207      0.98840  1.0000
  O2          0.41927      0.00987      0.32522  1.0000
  O2          0.95284      0.39778      0.65603  1.0000
  O2          0.38842      0.42612      0.48879  1.0000
  O2          0.54216      0.95542      0.82163  1.0000
  O2          0.00187      0.57318      0.14978  1.0000
  O2          0.53429      0.57063      0.34082  1.0000
  O2          0.00619      0.43658      0.00655  1.0000
  O2          0.39272      0.95476      0.67373  1.0000
  O2          0.42673      0.39637      0.84034  1.0000
  O2          0.94735      0.54270      0.50798  1.0000
  O2          0.56898      0.01894      0.17720  1.0000
  O2          0.56013      0.15017      0.25204  1.0000
  O2          0.81302      0.40090      0.58241  1.0000
  O2          0.57183      0.40582      0.91436  1.0000
  O2          0.39852      0.81813      0.74763  1.0000
  O2          0.14234      0.56711      0.08065  1.0000
  O2          0.39201      0.56576      0.41458  1.0000
  F           0.42774      0.88842      0.24929  1.0000
  F           0.07506      0.53226      0.58116  1.0000
  F           0.43470      0.53556      0.91297  1.0000
  F           0.53077      0.08016      0.74747  1.0000
  F           0.85082      0.44130      0.07140  1.0000
  F           0.52398      0.43616      0.41466  1.0000
