data_cif

_audit_creation_method             'generated by GULP'

_symmetry_space_group_name_H-M     'P 1'
_symmetry_Int_Tables_number        1
_symmetry_cell_setting             triclinic

_cell_length_a                       11.9524
_cell_length_b                       12.0065
_cell_length_c                       29.4505
_cell_angle_alpha                   90.0499
_cell_angle_beta                    90.2684
_cell_angle_gamma                  120.1360

loop_
_atom_site_label
_atom_site_fract_x
_atom_site_fract_y
_atom_site_fract_z
_atom_site_occupancy
  Ge          0.69960      0.37570      0.03389  1.0000
  Si          0.59614      0.30445      0.36660  1.0000
  Si          0.65873      0.28413      0.69819  1.0000
  Si          0.27377      0.60604      0.52993  1.0000
  Si          0.36173      0.66141      0.86201  1.0000
  Si          0.30000      0.68872      0.19649  1.0000
  Si          0.34639      0.67939      0.29749  1.0000
  Si          0.30637      0.60869      0.96230  1.0000
  Si          0.27953      0.66338      0.63069  1.0000
  Si          0.60450      0.28292      0.79884  1.0000
  Si          0.65341      0.36719      0.46664  1.0000
  Si          0.66908      0.30558      0.13208  1.0000
  Si          0.51892      0.40619      0.96633  1.0000
  Si          0.55418      0.09315      0.30206  1.0000
  Si          0.86852      0.45736      0.63368  1.0000
  Si          0.44425      0.56878      0.46390  1.0000
  Si          0.39971      0.87166      0.79738  1.0000
  Si          0.09141      0.51908      0.12918  1.0000
  Si          0.38879      0.51030      0.36230  1.0000
  Si          0.09293      0.57300      0.02601  1.0000
  Si          0.45255      0.87461      0.69558  1.0000
  Si          0.56788      0.45660      0.86359  1.0000
  Si          0.86415      0.40371      0.53197  1.0000
  Si          0.50852      0.09783      0.20026  1.0000
  Si          0.28650      0.38482      0.84800  1.0000
  Si          0.58071      0.88991      0.18454  1.0000
  Si          0.07209      0.68319      0.51690  1.0000
  Si          0.66883      0.57828      0.34846  1.0000
  Si          0.38064      0.08289      0.68219  1.0000
  Si          0.88052      0.28523      0.01026  1.0000
  Si          0.37367      0.28977      0.48045  1.0000
  Si          0.87669      0.58987      0.14296  1.0000
  Si          0.68137      0.08159      0.81251  1.0000
  Si          0.58486      0.68679      0.97755  1.0000
  Si          0.07861      0.38592      0.64652  1.0000
  Si          0.27199      0.88172      0.31289  1.0000
  Si          0.23900      0.33010      0.94857  1.0000
  Si          0.62835      0.89072      0.28596  1.0000
  Si          0.06958      0.73563      0.61762  1.0000
  Si          0.72385      0.64637      0.44848  1.0000
  Si          0.32293      0.07322      0.78286  1.0000
  Si          0.88588      0.23799      0.11350  1.0000
  Si          0.31569      0.23457      0.37984  1.0000
  Si          0.89224      0.65758      0.04065  1.0000
  Si          0.73161      0.07645      0.71173  1.0000
  Si          0.64329      0.73482      0.87694  1.0000
  Si          0.06529      0.32563      0.54573  1.0000
  Si          0.22779      0.89571      0.21189  1.0000
  Si          0.96050      0.11155      0.96227  1.0000
  Ge          0.84993      0.82870      0.29807  1.0000
  Si          0.13165      0.01531      0.63163  1.0000
  Si          0.00465      0.86354      0.46579  1.0000
  Si          0.10593      0.13604      0.79726  1.0000
  Si          0.82705      0.96113      0.13068  1.0000
  Si          0.09865      0.95442      0.36485  1.0000
  Si          0.83253      0.87407      0.02906  1.0000
  Si          0.01184      0.13833      0.69648  1.0000
  Si          0.86268      0.01323      0.86216  1.0000
  Si          0.12618      0.10743      0.53092  1.0000
  Si          0.95031      0.83915      0.19444  1.0000
  O2          0.91366      0.99662      0.99777  1.0000
  O3          0.97907      0.91905      0.33286  1.0000
  O2          0.05185      0.05812      0.66352  1.0000
  O2          0.04586      0.98571      0.49812  1.0000
  O2          0.98296      0.05567      0.82903  1.0000
  O2          0.91290      0.92164      0.16116  1.0000
  O2          0.30903      0.55535      0.32938  1.0000
  O2          0.40459      0.74983      0.66272  1.0000
  O2          0.22009      0.64677      0.99471  1.0000
  O2          0.64363      0.40552      0.83172  1.0000
  O2          0.56009      0.22621      0.16997  1.0000
  O2          0.73632      0.32864      0.50007  1.0000
  O3          0.56341      0.33198      0.99856  1.0000
  O2          0.74398      0.40876      0.66631  1.0000
  O2          0.63272      0.21614      0.33531  1.0000
  O2          0.39501      0.64500      0.49613  1.0000
  O2          0.21595      0.56816      0.16213  1.0000
  O2          0.32287      0.74552      0.82911  1.0000
  O2          0.11444      0.20138      0.96846  1.0000
  O3          0.75104      0.89192      0.30782  1.0000
  O2          0.06970      0.86167      0.63764  1.0000
  O2          0.84934      0.77378      0.46878  1.0000
  O2          0.19607      0.07209      0.80284  1.0000
  O2          0.88782      0.11513      0.13534  1.0000
  O2          0.19174      0.10768      0.35944  1.0000
  O2          0.90785      0.79455      0.02554  1.0000
  O2          0.85742      0.07634      0.69129  1.0000
  O2          0.77060      0.85954      0.85659  1.0000
  O2          0.06212      0.19760      0.52598  1.0000
  O2          0.10481      0.89940      0.19027  1.0000
  O3          0.90841      0.85351      0.24388  1.0000
  O2          0.11584      0.05279      0.58095  1.0000
  O2          0.91955      0.05122      0.91255  1.0000
  O2          0.05334      0.12391      0.74658  1.0000
  O2          0.83351      0.92256      0.07963  1.0000
  O2          0.04907      0.91596      0.41567  1.0000
  O2          0.89342      0.19619      0.97205  1.0000
  O3          0.76466      0.66641      0.30875  1.0000
  O2          0.28392      0.08552      0.64364  1.0000
  O2          0.07226      0.78076      0.47876  1.0000
  O2          0.18849      0.28714      0.80948  1.0000
  O2          0.67763      0.88981      0.14619  1.0000
  O2          0.17398      0.87887      0.35128  1.0000
  O2          0.68223      0.78720      0.01565  1.0000
  O2          0.08212      0.28993      0.68460  1.0000
  O2          0.77988      0.08263      0.85100  1.0000
  O2          0.27794      0.19235      0.51890  1.0000
  O2          0.87972      0.68757      0.18166  1.0000
  O2          0.29444      0.62588      0.24615  1.0000
  O2          0.33440      0.66340      0.58001  1.0000
  O2          0.30285      0.66327      0.91187  1.0000
  O2          0.66020      0.34078      0.74861  1.0000
  O3          0.60490      0.29899      0.08437  1.0000
  O2          0.65354      0.30691      0.41702  1.0000
  O2          0.36085      0.32098      0.96688  1.0000
  O2          0.63957      0.02320      0.30405  1.0000
  O2          0.93771      0.61346      0.63634  1.0000
  O2          0.60106      0.65658      0.46628  1.0000
  O2          0.31246      0.94054      0.80055  1.0000
  O2          0.01803      0.36347      0.13083  1.0000
  O2          0.30301      0.35411      0.36026  1.0000
  O2          0.02504      0.66076      0.02511  1.0000
  O2          0.60925      0.94433      0.69274  1.0000
  O2          0.65340      0.61251      0.85907  1.0000
  O2          0.93193      0.31572      0.52784  1.0000
  O2          0.35222      0.02775      0.19483  1.0000
  O3          0.74758      0.27919      0.00182  1.0000
  O2          0.67037      0.44492      0.34283  1.0000
  O2          0.51543      0.21668      0.67510  1.0000
  O2          0.20480      0.68116      0.50821  1.0000
  O2          0.28723      0.51851      0.83914  1.0000
  O2          0.44437      0.75840      0.17499  1.0000
  O2          0.26936      0.74623      0.31909  1.0000
  O2          0.45023      0.68716      0.98477  1.0000
  O2          0.21309      0.52063      0.65311  1.0000
  O2          0.68013      0.21441      0.82058  1.0000
  O2          0.50958      0.29378      0.48852  1.0000
  O2          0.74505      0.45488      0.15098  1.0000
  O3          0.76749      0.54372      0.01839  1.0000
  O2          0.44013      0.23063      0.36117  1.0000
  O2          0.73375      0.20344      0.69263  1.0000
  O2          0.19140      0.44989      0.52537  1.0000
  O2          0.51842      0.73721      0.85706  1.0000
  O2          0.22385      0.76843      0.19181  1.0000
  O2          0.50175      0.76301      0.30394  1.0000
  O2          0.23296      0.45313      0.96822  1.0000
  O2          0.19704      0.73655      0.63625  1.0000
  O2          0.44810      0.19922      0.80313  1.0000
  O2          0.72692      0.52333      0.46906  1.0000
  O2          0.76212      0.24169      0.13249  1.0000
  O2          0.21535      0.31174      0.89429  1.0000
  O2          0.65041      0.88787      0.23156  1.0000
  O2          0.06964      0.75407      0.56329  1.0000
  O2          0.74260      0.66154      0.39382  1.0000
  O2          0.30544      0.07677      0.72850  1.0000
  O2          0.88569      0.22301      0.05919  1.0000
  O2          0.29856      0.21812      0.43417  1.0000
  O2          0.88058      0.65942      0.09595  1.0000
  O2          0.75162      0.07797      0.76607  1.0000
  O2          0.66071      0.75570      0.93127  1.0000
  O2          0.07049      0.31011      0.60000  1.0000
  O2          0.20384      0.88973      0.26615  1.0000
  O2          0.56938      0.54888      0.98787  1.0000
  O2          0.41131      0.00600      0.32345  1.0000
  O2          0.95443      0.40140      0.65615  1.0000
  O2          0.38789      0.42925      0.48780  1.0000
  O2          0.54150      0.95614      0.82064  1.0000
  O2          0.99977      0.57022      0.14897  1.0000
  O2          0.52960      0.56584      0.33890  1.0000
  O2          0.00155      0.43155      0.00490  1.0000
  O2          0.39435      0.95792      0.67260  1.0000
  O2          0.42589      0.39761      0.84026  1.0000
  O2          0.94554      0.54410      0.50835  1.0000
  O2          0.57066      0.01799      0.17743  1.0000
  O2          0.55581      0.14871      0.25166  1.0000
  O2          0.81294      0.40334      0.58297  1.0000
  O2          0.57075      0.40952      0.91472  1.0000
  O2          0.39954      0.82038      0.74619  1.0000
  O2          0.13766      0.56762      0.07791  1.0000
  O2          0.38985      0.56593      0.41283  1.0000
  F           0.42401      0.88502      0.24796  1.0000
  F           0.07460      0.53382      0.58089  1.0000
  F           0.43286      0.53901      0.91235  1.0000
  F           0.53094      0.08214      0.74668  1.0000
  F           0.84517      0.42970      0.07024  1.0000
  F           0.52401      0.43802      0.41344  1.0000
