data_cif

_audit_creation_method             'generated by GULP'

_symmetry_space_group_name_H-M     'P 1'
_symmetry_Int_Tables_number        1
_symmetry_cell_setting             triclinic

_cell_length_a                       11.9545
_cell_length_b                       12.0065
_cell_length_c                       29.4427
_cell_angle_alpha                   90.1228
_cell_angle_beta                    90.4118
_cell_angle_gamma                  120.1351

loop_
_atom_site_label
_atom_site_fract_x
_atom_site_fract_y
_atom_site_fract_z
_atom_site_occupancy
  Ge          0.69960      0.37570      0.03389  1.0000
  Si          0.59823      0.30850      0.36458  1.0000
  Si          0.65891      0.28668      0.69718  1.0000
  Si          0.27368      0.60614      0.52936  1.0000
  Si          0.36392      0.66536      0.86342  1.0000
  Si          0.30032      0.69131      0.19695  1.0000
  Si          0.35392      0.68480      0.29741  1.0000
  Si          0.30698      0.60775      0.96319  1.0000
  Si          0.27842      0.66405      0.63002  1.0000
  Si          0.61197      0.28820      0.79844  1.0000
  Si          0.65387      0.36658      0.46522  1.0000
  Si          0.66815      0.30620      0.13212  1.0000
  Si          0.51912      0.40542      0.96599  1.0000
  Si          0.56038      0.09549      0.30133  1.0000
  Si          0.86745      0.45782      0.63211  1.0000
  Si          0.44457      0.56851      0.46368  1.0000
  Si          0.40593      0.87386      0.79753  1.0000
  Si          0.09041      0.51941      0.13022  1.0000
  Si          0.39225      0.51220      0.36182  1.0000
  Si          0.09378      0.57267      0.02702  1.0000
  Si          0.45149      0.87550      0.69545  1.0000
  Si          0.57130      0.45844      0.86351  1.0000
  Si          0.86498      0.40366      0.53039  1.0000
  Si          0.50738      0.09870      0.19974  1.0000
  Si          0.29128      0.39075      0.84730  1.0000
  Si          0.57932      0.89182      0.18308  1.0000
  Si          0.07233      0.68348      0.51521  1.0000
  Si          0.67343      0.58436      0.34846  1.0000
  Si          0.37924      0.08474      0.68303  1.0000
  Si          0.88081      0.28519      0.01128  1.0000
  Si          0.37471      0.28919      0.47825  1.0000
  Si          0.87577      0.59051      0.14314  1.0000
  Si          0.68771      0.08569      0.81118  1.0000
  Si          0.58600      0.68593      0.97932  1.0000
  Si          0.07766      0.38667      0.64568  1.0000
  Si          0.27834      0.88589      0.31371  1.0000
  Si          0.23934      0.32919      0.94723  1.0000
  Si          0.63622      0.89438      0.28403  1.0000
  Si          0.06859      0.73590      0.61600  1.0000
  Si          0.72413      0.64593      0.44920  1.0000
  Si          0.33090      0.07665      0.78426  1.0000
  Si          0.88497      0.23815      0.11455  1.0000
  Si          0.31616      0.23493      0.37752  1.0000
  Si          0.89322      0.65743      0.04075  1.0000
  Si          0.73123      0.07854      0.70996  1.0000
  Si          0.64373      0.73513      0.87876  1.0000
  Si          0.06598      0.32559      0.54491  1.0000
  Si          0.22735      0.89766      0.21306  1.0000
  Si          0.96086      0.11144      0.96322  1.0000
  Si          0.85328      0.83070      0.29784  1.0000
  Si          0.13138      0.01575      0.63001  1.0000
  Si          0.00483      0.86375      0.46422  1.0000
  Ge          0.10953      0.13795      0.79684  1.0000
  Si          0.82697      0.96147      0.13179  1.0000
  Si          0.09844      0.95388      0.36330  1.0000
  Si          0.83504      0.87457      0.03029  1.0000
  Si          0.00892      0.13719      0.69394  1.0000
  Si          0.86260      0.01245      0.86299  1.0000
  Si          0.12842      0.10808      0.52916  1.0000
  Si          0.94738      0.83776      0.19645  1.0000
  O2          0.91516      0.99803      0.99937  1.0000
  O2          0.97722      0.91076      0.32987  1.0000
  O2          0.04799      0.05915      0.65934  1.0000
  O2          0.04741      0.98724      0.49596  1.0000
  O3          0.98100      0.04716      0.83119  1.0000
  O2          0.90870      0.92227      0.16493  1.0000
  O2          0.31524      0.56037      0.32896  1.0000
  O2          0.40290      0.75097      0.66236  1.0000
  O2          0.22127      0.64523      0.99603  1.0000
  O2          0.64992      0.41053      0.83158  1.0000
  O2          0.55824      0.22731      0.16969  1.0000
  O2          0.73741      0.32748      0.49822  1.0000
  O3          0.56362      0.33109      0.99821  1.0000
  O2          0.74273      0.40981      0.66457  1.0000
  O2          0.63748      0.22120      0.33372  1.0000
  O2          0.39519      0.64448      0.49591  1.0000
  O2          0.21473      0.56908      0.16333  1.0000
  O2          0.32764      0.75036      0.83011  1.0000
  O2          0.11544      0.20074      0.96740  1.0000
  O2          0.76255      0.89370      0.30405  1.0000
  O2          0.06914      0.86212      0.63610  1.0000
  O2          0.85019      0.77351      0.46928  1.0000
  O3          0.20752      0.07340      0.80603  1.0000
  O2          0.88742      0.11549      0.13632  1.0000
  O2          0.18967      0.10759      0.35741  1.0000
  O2          0.90960      0.79460      0.02548  1.0000
  O2          0.85473      0.07769      0.68806  1.0000
  O2          0.76842      0.85931      0.85806  1.0000
  O2          0.06363      0.19780      0.52533  1.0000
  O2          0.10204      0.90032      0.19287  1.0000
  O2          0.90292      0.84334      0.24690  1.0000
  O2          0.12183      0.05245      0.57866  1.0000
  O2          0.91589      0.05014      0.91393  1.0000
  O3          0.04735      0.11389      0.74288  1.0000
  O2          0.84040      0.92235      0.08142  1.0000
  O2          0.04456      0.91513      0.41357  1.0000
  O2          0.89481      0.19662      0.97327  1.0000
  O2          0.77145      0.67955      0.30990  1.0000
  O2          0.28191      0.08689      0.64468  1.0000
  O2          0.07334      0.78128      0.47686  1.0000
  O3          0.19550      0.30031      0.80746  1.0000
  O2          0.67552      0.89114      0.14453  1.0000
  O2          0.18066      0.88403      0.35213  1.0000
  O2          0.68381      0.78677      0.01754  1.0000
  O2          0.08043      0.29044      0.68388  1.0000
  O2          0.78649      0.08754      0.84965  1.0000
  O2          0.27935      0.19223      0.51662  1.0000
  O2          0.87814      0.68816      0.18171  1.0000
  O2          0.29849      0.62992      0.24645  1.0000
  O2          0.33406      0.66378      0.57954  1.0000
  O2          0.30481      0.66594      0.91330  1.0000
  O2          0.66424      0.34483      0.74779  1.0000
  O3          0.60461      0.29916      0.08416  1.0000
  O2          0.65545      0.31003      0.41502  1.0000
  O2          0.36114      0.32015      0.96584  1.0000
  O2          0.64743      0.02627      0.30331  1.0000
  O2          0.93672      0.61399      0.63465  1.0000
  O2          0.60135      0.65625      0.46669  1.0000
  O2          0.32042      0.94351      0.80081  1.0000
  O2          0.01709      0.36386      0.13193  1.0000
  O2          0.30510      0.35598      0.35854  1.0000
  O2          0.02624      0.66071      0.02566  1.0000
  O2          0.60785      0.94610      0.69169  1.0000
  O2          0.65544      0.61438      0.86018  1.0000
  O2          0.93276      0.31560      0.52667  1.0000
  O2          0.35075      0.02943      0.19528  1.0000
  O3          0.74810      0.27911      0.00216  1.0000
  O2          0.67293      0.45014      0.34129  1.0000
  O2          0.51409      0.21811      0.67521  1.0000
  O2          0.20524      0.68138      0.50725  1.0000
  O2          0.29003      0.52373      0.83995  1.0000
  O2          0.44308      0.75976      0.17429  1.0000
  O2          0.27775      0.75153      0.31981  1.0000
  O2          0.45051      0.68464      0.98620  1.0000
  O2          0.21194      0.52158      0.65260  1.0000
  O2          0.68838      0.21958      0.81940  1.0000
  O2          0.50972      0.29145      0.48659  1.0000
  O2          0.74394      0.45574      0.15089  1.0000
  O3          0.76863      0.54367      0.01819  1.0000
  O2          0.44170      0.23324      0.35855  1.0000
  O2          0.73282      0.20535      0.69112  1.0000
  O2          0.19192      0.44999      0.52475  1.0000
  O2          0.52009      0.74003      0.85923  1.0000
  O2          0.22311      0.77032      0.19270  1.0000
  O2          0.51025      0.76791      0.30280  1.0000
  O2          0.23239      0.45172      0.96712  1.0000
  O2          0.19607      0.73738      0.63499  1.0000
  O2          0.45653      0.20400      0.80380  1.0000
  O2          0.72612      0.52241      0.46963  1.0000
  O2          0.76130      0.24234      0.13326  1.0000
  O2          0.21692      0.31069      0.89261  1.0000
  O2          0.65306      0.89367      0.22962  1.0000
  O2          0.06872      0.75390      0.56161  1.0000
  O2          0.74397      0.66091      0.39483  1.0000
  O2          0.30802      0.08233      0.72992  1.0000
  O2          0.88473      0.22264      0.06025  1.0000
  O2          0.29927      0.21740      0.43182  1.0000
  O2          0.88045      0.65975      0.09601  1.0000
  O2          0.75641      0.08235      0.76425  1.0000
  O2          0.66150      0.75474      0.93317  1.0000
  O2          0.07047      0.31067      0.59924  1.0000
  O2          0.20875      0.89404      0.26741  1.0000
  O2          0.56944      0.54719      0.98864  1.0000
  O2          0.41905      0.00904      0.32380  1.0000
  O2          0.95341      0.40229      0.65492  1.0000
  O2          0.38812      0.42805      0.48664  1.0000
  O2          0.54925      0.95905      0.81969  1.0000
  O2          0.99878      0.57098      0.14958  1.0000
  O2          0.53364      0.56992      0.33888  1.0000
  O2          0.00234      0.43105      0.00604  1.0000
  O2          0.39080      0.95825      0.67385  1.0000
  O2          0.43000      0.40148      0.83961  1.0000
  O2          0.94643      0.54378      0.50661  1.0000
  O2          0.56702      0.01838      0.17552  1.0000
  O2          0.55913      0.14909      0.25091  1.0000
  O2          0.81295      0.40370      0.58123  1.0000
  O2          0.57225      0.40966      0.91455  1.0000
  O2          0.40281      0.82081      0.74631  1.0000
  O2          0.13768      0.56771      0.07907  1.0000
  O2          0.39137      0.56637      0.41244  1.0000
  F           0.42694      0.88753      0.24749  1.0000
  F           0.07461      0.53413      0.57980  1.0000
  F           0.43263      0.53759      0.91246  1.0000
  F           0.53381      0.08487      0.74658  1.0000
  F           0.84496      0.42982      0.07068  1.0000
  F           0.52359      0.43690      0.41272  1.0000
