data_cif

_audit_creation_method             'generated by GULP'

_symmetry_space_group_name_H-M     'P 1'
_symmetry_Int_Tables_number        1
_symmetry_cell_setting             triclinic

_cell_length_a                       11.9892
_cell_length_b                       11.9120
_cell_length_c                       29.4716
_cell_angle_alpha                   90.0000
_cell_angle_beta                    89.8991
_cell_angle_gamma                  119.7872

loop_
_atom_site_label
_atom_site_fract_x
_atom_site_fract_y
_atom_site_fract_z
_atom_site_occupancy
  Si          0.69960      0.37570      0.03389  1.0000
  Si          0.62281      0.32224      0.36765  1.0000
  Si          0.67993      0.28971      0.69583  1.0000
  Si          0.29912      0.62140      0.53276  1.0000
  Si          0.38390      0.66538      0.87042  1.0000
  Si          0.32956      0.70391      0.20014  1.0000
  Si          0.38323      0.70245      0.30069  1.0000
  Si          0.32610      0.61279      0.97251  1.0000
  Si          0.30643      0.67912      0.63444  1.0000
  Si          0.62214      0.28450      0.79792  1.0000
  Si          0.67647      0.37737      0.46819  1.0000
  Si          0.70691      0.32530      0.13557  1.0000
  Ge          0.52954      0.42124      0.96681  1.0000
  Si          0.58549      0.11266      0.30220  1.0000
  Si          0.89401      0.47004      0.63373  1.0000
  Si          0.47129      0.58287      0.46778  1.0000
  Si          0.41234      0.86319      0.80061  1.0000
  Si          0.11824      0.53193      0.13573  1.0000
  Si          0.42054      0.53019      0.36613  1.0000
  Si          0.11202      0.57905      0.03460  1.0000
  Ge          0.47650      0.89472      0.70152  1.0000
  Si          0.59369      0.45386      0.86772  1.0000
  Si          0.88779      0.41671      0.53260  1.0000
  Si          0.53474      0.11459      0.20056  1.0000
  Si          0.30801      0.38248      0.85543  1.0000
  Si          0.60703      0.90492      0.18572  1.0000
  Si          0.09671      0.69722      0.51863  1.0000
  Si          0.70061      0.60145      0.35243  1.0000
  Si          0.39746      0.08936      0.67850  1.0000
  Si          0.90392      0.29973      0.02026  1.0000
  Si          0.39901      0.30091      0.48261  1.0000
  Si          0.90932      0.60353      0.14970  1.0000
  Si          0.69802      0.07748      0.81290  1.0000
  Si          0.60857      0.69491      0.98983  1.0000
  Si          0.10212      0.39883      0.64807  1.0000
  Si          0.30543      0.90386      0.31590  1.0000
  Si          0.25106      0.32390      0.95762  1.0000
  Si          0.66355      0.91095      0.28641  1.0000
  Si          0.09394      0.74831      0.61952  1.0000
  Si          0.74927      0.65967      0.45308  1.0000
  Si          0.33756      0.07044      0.78180  1.0000
  Si          0.91662      0.25370      0.12078  1.0000
  Si          0.34248      0.25042      0.38192  1.0000
  Si          0.91209      0.65738      0.04881  1.0000
  Si          0.75498      0.07586      0.71072  1.0000
  Si          0.66847      0.73590      0.88653  1.0000
  Si          0.08941      0.34010      0.54755  1.0000
  Si          0.25676      0.91341      0.21525  1.0000
  Si          0.96595      0.11705      0.96840  1.0000
  Si          0.88186      0.84947      0.30178  1.0000
  Si          0.15220      0.02951      0.63248  1.0000
  Si          0.02858      0.87711      0.46732  1.0000
  Si          0.12476      0.13982      0.80138  1.0000
  Si          0.85647      0.97457      0.13633  1.0000
  Si          0.12417      0.97063      0.36655  1.0000
  Si          0.85383      0.88033      0.03585  1.0000
  Si          0.04009      0.15412      0.69993  1.0000
  Si          0.88127      0.01807      0.86695  1.0000
  Si          0.14956      0.12112      0.53201  1.0000
  Si          0.97745      0.85154      0.20101  1.0000
  O2          0.92701      0.99474      0.00007  1.0000
  O2          0.00302      0.93037      0.33417  1.0000
  O2          0.07902      0.07075      0.66826  1.0000
  O2          0.07057      0.00058      0.49907  1.0000
  O2          0.00302      0.05717      0.83417  1.0000
  O2          0.93547      0.93303      0.16927  1.0000
  O2          0.34439      0.57874      0.33335  1.0000
  O3          0.42559      0.75833      0.66587  1.0000
  O2          0.23908      0.65341      0.00224  1.0000
  O2          0.66207      0.40903      0.82943  1.0000
  O2          0.58454      0.24127      0.16852  1.0000
  O2          0.76160      0.33940      0.50082  1.0000
  O3          0.58044      0.33575      0.00246  1.0000
  O2          0.76696      0.41735      0.66610  1.0000
  O2          0.66164      0.23737      0.33498  1.0000
  O2          0.42149      0.65975      0.49981  1.0000
  O2          0.24443      0.58081      0.16751  1.0000
  O2          0.34397      0.74998      0.83890  1.0000
  O2          0.11765      0.20564      0.97534  1.0000
  O2          0.79000      0.91212      0.30659  1.0000
  O2          0.09485      0.87616      0.63939  1.0000
  O2          0.87496      0.78644      0.47298  1.0000
  O2          0.21398      0.07339      0.80303  1.0000
  O2          0.91763      0.12852      0.14195  1.0000
  O2          0.21603      0.12514      0.36174  1.0000
  O2          0.91119      0.78433      0.02894  1.0000
  O2          0.88839      0.09102      0.69299  1.0000
  O2          0.79206      0.86243      0.86530  1.0000
  O2          0.08841      0.21391      0.52638  1.0000
  O2          0.13107      0.91449      0.19536  1.0000
  O2          0.93688      0.86241      0.25163  1.0000
  O2          0.12976      0.06494      0.58249  1.0000
  O2          0.93141      0.06873      0.91688  1.0000
  O2          0.07462      0.14033      0.75145  1.0000
  O2          0.87628      0.93820      0.08584  1.0000
  O2          0.06915      0.92854      0.41670  1.0000
  O2          0.89714      0.19935      0.98112  1.0000
  O2          0.79983      0.69763      0.31415  1.0000
  O2          0.30475      0.10762      0.64274  1.0000
  O2          0.09843      0.79581      0.48026  1.0000
  O2          0.21005      0.28866      0.81690  1.0000
  O2          0.70446      0.90373      0.14739  1.0000
  O2          0.20621      0.90082      0.35418  1.0000
  O2          0.70128      0.80589      0.02559  1.0000
  O2          0.10890      0.30523      0.68721  1.0000
  O2          0.79598      0.08162      0.85144  1.0000
  O2          0.30157      0.20229      0.52094  1.0000
  O2          0.90760      0.70039      0.18807  1.0000
  O2          0.32808      0.64531      0.25031  1.0000
  O2          0.35531      0.67790      0.58263  1.0000
  O2          0.32852      0.66068      0.92067  1.0000
  O2          0.67751      0.33518      0.74766  1.0000
  O2          0.65072      0.32561      0.08570  1.0000
  O2          0.67795      0.32025      0.41802  1.0000
  O3          0.36320      0.30435      0.97634  1.0000
  O2          0.67284      0.04342      0.30492  1.0000
  O2          0.96028      0.62639      0.63798  1.0000
  O2          0.62697      0.67018      0.47120  1.0000
  O2          0.33022      0.93993      0.80141  1.0000
  O2          0.04897      0.37522      0.13919  1.0000
  O2          0.33320      0.37360      0.36341  1.0000
  O2          0.04576      0.66913      0.03035  1.0000
  O3          0.64283      0.94417      0.69199  1.0000
  O2          0.67582      0.61273      0.86692  1.0000
  O2          0.95707      0.32927      0.52915  1.0000
  O2          0.37906      0.04623      0.19713  1.0000
  O2          0.77146      0.30044      0.01355  1.0000
  O2          0.69907      0.46595      0.34529  1.0000
  O2          0.53520      0.22313      0.67606  1.0000
  O2          0.22895      0.69490      0.51047  1.0000
  O2          0.31567      0.52100      0.84938  1.0000
  O2          0.47274      0.77169      0.17780  1.0000
  O2          0.30696      0.76989      0.32304  1.0000
  O2          0.47084      0.69095      0.99227  1.0000
  O2          0.23457      0.53199      0.65478  1.0000
  O2          0.69036      0.20835      0.81895  1.0000
  O2          0.53329      0.30196      0.49053  1.0000
  O2          0.77709      0.46897      0.15786  1.0000
  O2          0.78818      0.53272      0.02869  1.0000
  O2          0.46734      0.24837      0.36253  1.0000
  O2          0.74324      0.19827      0.69213  1.0000
  O2          0.21603      0.46509      0.52833  1.0000
  O2          0.53842      0.73073      0.86915  1.0000
  O2          0.25603      0.78688      0.19542  1.0000
  O2          0.53869      0.78404      0.30580  1.0000
  O2          0.26279      0.45804      0.97621  1.0000
  O2          0.21785      0.74755      0.63964  1.0000
  O2          0.46761      0.19532      0.79918  1.0000
  O2          0.75001      0.53387      0.47291  1.0000
  O2          0.79001      0.25208      0.14001  1.0000
  O2          0.24033      0.31457      0.90244  1.0000
  O2          0.68102      0.90864      0.23209  1.0000
  O2          0.09495      0.76832      0.56523  1.0000
  O2          0.76929      0.67666      0.39880  1.0000
  O2          0.32503      0.07251      0.72762  1.0000
  O2          0.91336      0.23115      0.06650  1.0000
  O2          0.32501      0.23063      0.43624  1.0000
  O2          0.91108      0.67638      0.10310  1.0000
  O2          0.76570      0.07726      0.76589  1.0000
  O2          0.68100      0.75050      0.94071  1.0000
  O2          0.09267      0.32080      0.60183  1.0000
  O2          0.23674      0.91038      0.26953  1.0000
  O3          0.59954      0.56273      0.00259  1.0000
  O2          0.44433      0.02871      0.32511  1.0000
  O2          0.97508      0.41024      0.65786  1.0000
  O2          0.41321      0.44116      0.49111  1.0000
  O2          0.55837      0.95293      0.82023  1.0000
  O2          0.03566      0.59139      0.15870  1.0000
  O2          0.56171      0.58740      0.34322  1.0000
  O2          0.03096      0.43817      0.01048  1.0000
  O3          0.40649      0.96621      0.66574  1.0000
  O2          0.44766      0.39758      0.84810  1.0000
  O2          0.97037      0.55875      0.50963  1.0000
  O2          0.59282      0.03097      0.17723  1.0000
  O2          0.58619      0.16696      0.25150  1.0000
  O2          0.83510      0.41543      0.58369  1.0000
  O3          0.60170      0.39903      0.91553  1.0000
  O3          0.40433      0.80035      0.75280  1.0000
  O2          0.17094      0.58335      0.08464  1.0000
  O2          0.41984      0.58379      0.41683  1.0000
  F           0.45660      0.90471      0.25076  1.0000
  F           0.08984      0.54309      0.58363  1.0000
  F           0.47619      0.51275      0.92939  1.0000
  F           0.52984      0.03958      0.73894  1.0000
  F           0.91619      0.45626      0.08470  1.0000
  F           0.54943      0.45113      0.41757  1.0000
