data_cif

_audit_creation_method             'generated by GULP'

_symmetry_space_group_name_H-M     'P 1'
_symmetry_Int_Tables_number        1
_symmetry_cell_setting             triclinic

_cell_length_a                       11.9418
_cell_length_b                       11.9732
_cell_length_c                       29.4734
_cell_angle_alpha                   89.4577
_cell_angle_beta                    90.0004
_cell_angle_gamma                  119.9135

loop_
_atom_site_label
_atom_site_fract_x
_atom_site_fract_y
_atom_site_fract_z
_atom_site_occupancy
  Si          0.69960      0.37570      0.03389  1.0000
  Si          0.63145      0.32309      0.36929  1.0000
  Si          0.68113      0.28384      0.69995  1.0000
  Si          0.30498      0.61442      0.53548  1.0000
  Si          0.38167      0.66069      0.86856  1.0000
  Si          0.33637      0.70520      0.20467  1.0000
  Si          0.39162      0.70486      0.30527  1.0000
  Si          0.31818      0.61294      0.97133  1.0000
  Si          0.30272      0.66561      0.63593  1.0000
  Si          0.62553      0.28349      0.80056  1.0000
  Si          0.68491      0.37429      0.46975  1.0000
  Si          0.71531      0.32798      0.13666  1.0000
  Ge          0.52607      0.42277      0.96775  1.0000
  Si          0.59601      0.11515      0.30475  1.0000
  Si          0.89281      0.45963      0.63567  1.0000
  Si          0.47853      0.57769      0.47108  1.0000
  Si          0.42212      0.87185      0.80192  1.0000
  Si          0.13723      0.53703      0.13631  1.0000
  Si          0.42751      0.52907      0.36956  1.0000
  Ge          0.09761      0.56591      0.03747  1.0000
  Si          0.47524      0.87355      0.70047  1.0000
  Si          0.59456      0.45166      0.86892  1.0000
  Si          0.89520      0.41102      0.53415  1.0000
  Si          0.54459      0.11684      0.20331  1.0000
  Si          0.30705      0.38000      0.85544  1.0000
  Si          0.61509      0.90761      0.18951  1.0000
  Si          0.10412      0.69214      0.52026  1.0000
  Si          0.70882      0.60155      0.35482  1.0000
  Si          0.40307      0.08229      0.68596  1.0000
  Si          0.90273      0.29384      0.01596  1.0000
  Si          0.40633      0.29657      0.48497  1.0000
  Si          0.92136      0.60867      0.14979  1.0000
  Si          0.70184      0.08108      0.81571  1.0000
  Si          0.60319      0.69483      0.98926  1.0000
  Si          0.10163      0.38715      0.65040  1.0000
  Si          0.31512      0.90641      0.31926  1.0000
  Si          0.24675      0.32533      0.95799  1.0000
  Si          0.67305      0.91371      0.28999  1.0000
  Si          0.09386      0.73866      0.62098  1.0000
  Si          0.75777      0.65578      0.45550  1.0000
  Si          0.34433      0.07331      0.78661  1.0000
  Si          0.92961      0.25684      0.11884  1.0000
  Si          0.34954      0.25005      0.38425  1.0000
  Si          0.91574      0.66334      0.04723  1.0000
  Si          0.75372      0.07499      0.71524  1.0000
  Si          0.66711      0.73183      0.88639  1.0000
  Si          0.09634      0.33292      0.54972  1.0000
  Si          0.26534      0.91538      0.21861  1.0000
  Si          0.96151      0.11025      0.96847  1.0000
  Si          0.89024      0.84966      0.30347  1.0000
  Si          0.15547      0.01766      0.63612  1.0000
  Si          0.03705      0.87402      0.46994  1.0000
  Si          0.12620      0.13507      0.80311  1.0000
  Si          0.86222      0.97584      0.13742  1.0000
  Si          0.13214      0.97104      0.36911  1.0000
  Si          0.84556      0.87841      0.03676  1.0000
  Si          0.03495      0.13904      0.70175  1.0000
  Si          0.88075      0.01284      0.86780  1.0000
  Si          0.15739      0.11469      0.53528  1.0000
  Si          0.98544      0.85360      0.20211  1.0000
  O2          0.92854      0.99433      0.00261  1.0000
  O2          0.01324      0.92924      0.33524  1.0000
  O2          0.07838      0.05947      0.66998  1.0000
  O2          0.07857      0.99435      0.50261  1.0000
  O2          0.00383      0.05288      0.83560  1.0000
  O2          0.94526      0.93578      0.16962  1.0000
  O2          0.35149      0.58038      0.33770  1.0000
  O2          0.42601      0.74852      0.66844  1.0000
  O3          0.23391      0.65083      0.00052  1.0000
  O2          0.66589      0.40854      0.83156  1.0000
  O2          0.59575      0.24335      0.17078  1.0000
  O2          0.76997      0.33468      0.50194  1.0000
  O3          0.57744      0.33783      0.00470  1.0000
  O2          0.76548      0.40832      0.66753  1.0000
  O2          0.67182      0.24018      0.33679  1.0000
  O2          0.42964      0.65403      0.50329  1.0000
  O2          0.25167      0.58014      0.17367  1.0000
  O2          0.34675      0.74533      0.83444  1.0000
  O2          0.11195      0.20775      0.97596  1.0000
  O2          0.80005      0.91371      0.30960  1.0000
  O2          0.09158      0.86328      0.64110  1.0000
  O2          0.88291      0.78177      0.47575  1.0000
  O2          0.21678      0.07078      0.80697  1.0000
  O2          0.92566      0.13008      0.14083  1.0000
  O2          0.22263      0.12542      0.36413  1.0000
  O2          0.89849      0.78089      0.02927  1.0000
  O2          0.88071      0.07499      0.69563  1.0000
  O2          0.78993      0.85860      0.86439  1.0000
  O2          0.09549      0.20693      0.52948  1.0000
  O2          0.14031      0.91789      0.19826  1.0000
  O2          0.94017      0.86045      0.25249  1.0000
  O2          0.14110      0.06009      0.58593  1.0000
  O2          0.93176      0.05618      0.91802  1.0000
  O2          0.07408      0.12823      0.75274  1.0000
  O2          0.86989      0.93249      0.08720  1.0000
  O2          0.07535      0.92861      0.41929  1.0000
  O2          0.88037      0.18121      0.98007  1.0000
  O2          0.80772      0.69844      0.31630  1.0000
  O2          0.30745      0.08508      0.64735  1.0000
  O2          0.10726      0.79201      0.48183  1.0000
  O2          0.21001      0.28469      0.81695  1.0000
  O2          0.71168      0.90612      0.15123  1.0000
  O2          0.21670      0.90362      0.35787  1.0000
  O2          0.69346      0.80747      0.02515  1.0000
  O2          0.10366      0.29026      0.68892  1.0000
  O2          0.79993      0.08257      0.85399  1.0000
  O2          0.30961      0.19669      0.52340  1.0000
  O2          0.91963      0.70398      0.18827  1.0000
  O2          0.33697      0.64890      0.25509  1.0000
  O2          0.36150      0.66884      0.58574  1.0000
  O2          0.32337      0.65693      0.91807  1.0000
  O2          0.68244      0.33979      0.75014  1.0000
  O2          0.66079      0.33172      0.08715  1.0000
  O2          0.68700      0.31986      0.41948  1.0000
  O3          0.35925      0.30588      0.97759  1.0000
  O2          0.68403      0.04658      0.30780  1.0000
  O2          0.96101      0.61549      0.63913  1.0000
  O2          0.63488      0.66497      0.47398  1.0000
  O2          0.33505      0.94111      0.80550  1.0000
  O2          0.06148      0.37848      0.13712  1.0000
  O2          0.33986      0.37321      0.36610  1.0000
  O3          0.04770      0.68280      0.02764  1.0000
  O2          0.63182      0.94212      0.69743  1.0000
  O2          0.67735      0.61020      0.86811  1.0000
  O2          0.96426      0.32373      0.53124  1.0000
  O2          0.38825      0.04757      0.19972  1.0000
  O2          0.76942      0.29764      0.01530  1.0000
  O2          0.70728      0.46709      0.34708  1.0000
  O2          0.53729      0.21609      0.67822  1.0000
  O2          0.23795      0.69105      0.51297  1.0000
  O2          0.31286      0.51682      0.84786  1.0000
  O2          0.47990      0.77552      0.18190  1.0000
  O2          0.31553      0.77262      0.32701  1.0000
  O2          0.46608      0.69101      0.98992  1.0000
  O2          0.23457      0.52162      0.65815  1.0000
  O2          0.69875      0.21317      0.82333  1.0000
  O2          0.54125      0.29766      0.49225  1.0000
  O2          0.79036      0.47185      0.15736  1.0000
  O2          0.79504      0.53038      0.02939  1.0000
  O2          0.47513      0.24934      0.36442  1.0000
  O2          0.75421      0.20082      0.69493  1.0000
  O2          0.22329      0.45871      0.53032  1.0000
  O2          0.53661      0.72456      0.86805  1.0000
  O2          0.26230      0.78772      0.19985  1.0000
  O2          0.54772      0.78788      0.31030  1.0000
  O2          0.25896      0.45826      0.97583  1.0000
  O2          0.22016      0.73936      0.64080  1.0000
  O2          0.46895      0.20097      0.80538  1.0000
  O2          0.75893      0.52999      0.47491  1.0000
  O2          0.80639      0.26411      0.13718  1.0000
  O2          0.23806      0.31388      0.90275  1.0000
  O2          0.68951      0.91054      0.23574  1.0000
  O2          0.09771      0.76020      0.56666  1.0000
  O2          0.77829      0.67471      0.40118  1.0000
  O2          0.32681      0.07546      0.73230  1.0000
  O2          0.92491      0.23927      0.06472  1.0000
  O2          0.33186      0.22851      0.43857  1.0000
  O2          0.91847      0.67478      0.10247  1.0000
  O2          0.77334      0.07815      0.76948  1.0000
  O2          0.67996      0.74940      0.94050  1.0000
  O2          0.09794      0.31399      0.60404  1.0000
  O2          0.24568      0.91324      0.27292  1.0000
  O3          0.59623      0.56403      0.00320  1.0000
  O2          0.45464      0.03100      0.32816  1.0000
  O2          0.97571      0.40089      0.65906  1.0000
  O2          0.42061      0.43567      0.49410  1.0000
  O2          0.56357      0.95339      0.82480  1.0000
  O2          0.04540      0.59146      0.15619  1.0000
  O2          0.56916      0.58781      0.34617  1.0000
  O3          0.02655      0.42465      0.00203  1.0000
  O2          0.41801      0.95770      0.67707  1.0000
  O2          0.44830      0.39722      0.84903  1.0000
  O2          0.97929      0.55303      0.51113  1.0000
  O2          0.60449      0.03529      0.18042  1.0000
  O2          0.59644      0.16988      0.25395  1.0000
  O2          0.84075      0.40907      0.58485  1.0000
  O3          0.59999      0.39801      0.91756  1.0000
  O2          0.42093      0.81882      0.75127  1.0000
  O3          0.19631      0.59068      0.08767  1.0000
  O2          0.42602      0.57963      0.42038  1.0000
  F           0.46659      0.90963      0.25417  1.0000
  F           0.10231      0.53950      0.58538  1.0000
  F           0.47468      0.51269      0.92944  1.0000
  F           0.55133      0.07906      0.75105  1.0000
  F           0.95631      0.47597      0.07578  1.0000
  F           0.55715      0.44920      0.41985  1.0000
