data_cif

_audit_creation_method             'generated by GULP'

_symmetry_space_group_name_H-M     'P 1'
_symmetry_Int_Tables_number        1
_symmetry_cell_setting             triclinic

_cell_length_a                       11.9399
_cell_length_b                       11.9615
_cell_length_c                       29.4034
_cell_angle_alpha                   89.5389
_cell_angle_beta                    90.6223
_cell_angle_gamma                  119.7573

loop_
_atom_site_label
_atom_site_fract_x
_atom_site_fract_y
_atom_site_fract_z
_atom_site_occupancy
  Si          0.69960      0.37570      0.03389  1.0000
  Si          0.63011      0.32042      0.36776  1.0000
  Si          0.69203      0.28917      0.69971  1.0000
  Si          0.31130      0.61512      0.53556  1.0000
  Si          0.37388      0.66224      0.86991  1.0000
  Si          0.33053      0.70084      0.20180  1.0000
  Si          0.38849      0.70192      0.30277  1.0000
  Si          0.32297      0.61287      0.97233  1.0000
  Si          0.30889      0.66651      0.63641  1.0000
  Si          0.63645      0.30198      0.80157  1.0000
  Si          0.68724      0.37382      0.46848  1.0000
  Si          0.70753      0.32397      0.13580  1.0000
  Ge          0.53276      0.42858      0.96601  1.0000
  Si          0.59127      0.11107      0.30265  1.0000
  Si          0.90087      0.46122      0.63472  1.0000
  Si          0.48194      0.57749      0.47033  1.0000
  Si          0.42296      0.87351      0.80556  1.0000
  Si          0.11751      0.52883      0.13709  1.0000
  Si          0.42608      0.52826      0.36838  1.0000
  Si          0.11136      0.57768      0.03572  1.0000
  Si          0.48316      0.87273      0.70291  1.0000
  Si          0.59522      0.46794      0.86686  1.0000
  Si          0.89974      0.41093      0.53293  1.0000
  Si          0.53687      0.11291      0.20076  1.0000
  Si          0.30404      0.38401      0.85517  1.0000
  Si          0.60822      0.90278      0.18679  1.0000
  Si          0.10886      0.69187      0.51967  1.0000
  Si          0.70719      0.59930      0.35389  1.0000
  Si          0.41051      0.08586      0.68627  1.0000
  Si          0.90359      0.29804      0.02078  1.0000
  Si          0.41024      0.29706      0.48405  1.0000
  Si          0.90904      0.60084      0.15076  1.0000
  Ge          0.69511      0.08986      0.81079  1.0000
  Si          0.60908      0.70043      0.98890  1.0000
  Si          0.10909      0.38840      0.65037  1.0000
  Si          0.31201      0.90333      0.31729  1.0000
  Si          0.25164      0.32612      0.95770  1.0000
  Si          0.66833      0.90973      0.28771  1.0000
  Si          0.10039      0.73928      0.62052  1.0000
  Si          0.76029      0.65498      0.45486  1.0000
  Si          0.35030      0.08286      0.78794  1.0000
  Si          0.91680      0.25162      0.12187  1.0000
  Si          0.34891      0.24899      0.38318  1.0000
  Si          0.91145      0.65697      0.04968  1.0000
  Si          0.76683      0.07575      0.71521  1.0000
  Si          0.66448      0.74592      0.88555  1.0000
  Si          0.10214      0.33368      0.54934  1.0000
  Si          0.25904      0.91089      0.21648  1.0000
  Si          0.96736      0.11706      0.96935  1.0000
  Si          0.88690      0.84725      0.30322  1.0000
  Si          0.16287      0.01850      0.63514  1.0000
  Si          0.04041      0.87312      0.46921  1.0000
  Si          0.12532      0.13746      0.80364  1.0000
  Si          0.85706      0.97300      0.13746  1.0000
  Si          0.13171      0.96951      0.36828  1.0000
  Si          0.85494      0.88115      0.03679  1.0000
  Si          0.04283      0.14032      0.70057  1.0000
  Si          0.88052      0.02756      0.86708  1.0000
  Si          0.16347      0.11568      0.53429  1.0000
  Si          0.97825      0.84787      0.20212  1.0000
  O2          0.93264      0.99863      0.00281  1.0000
  O2          0.00812      0.92728      0.33631  1.0000
  O2          0.09060      0.06271      0.66977  1.0000
  O2          0.08264      0.99376      0.50220  1.0000
  O2          0.00600      0.05666      0.83668  1.0000
  O2          0.93553      0.93105      0.17129  1.0000
  O2          0.34986      0.57882      0.33597  1.0000
  O2          0.43122      0.74872      0.67014  1.0000
  O2          0.23719      0.65217      0.00310  1.0000
  O2          0.66696      0.43241      0.82746  1.0000
  O2          0.58466      0.23849      0.16854  1.0000
  O2          0.77404      0.33440      0.50057  1.0000
  O3          0.58158      0.33971      0.00172  1.0000
  O2          0.77379      0.41021      0.66633  1.0000
  O2          0.66838      0.23674      0.33499  1.0000
  O2          0.43438      0.65403      0.50331  1.0000
  O2          0.24466      0.57792      0.16949  1.0000
  O2          0.33471      0.74444      0.83581  1.0000
  O2          0.11969      0.20828      0.97626  1.0000
  O2          0.79583      0.91063      0.30794  1.0000
  O2          0.09822      0.86452      0.64038  1.0000
  O2          0.88666      0.78130      0.47494  1.0000
  O2          0.22320      0.08018      0.80761  1.0000
  O2          0.91800      0.12629      0.14301  1.0000
  O2          0.22158      0.12381      0.36322  1.0000
  O2          0.91057      0.78385      0.02995  1.0000
  O2          0.88990      0.07788      0.69070  1.0000
  O2          0.78228      0.87264      0.86322  1.0000
  O2          0.10117      0.20788      0.52874  1.0000
  O2          0.13217      0.91075      0.19622  1.0000
  O2          0.94124      0.85867      0.25326  1.0000
  O2          0.14917      0.06233      0.58516  1.0000
  O2          0.93150      0.06404      0.91869  1.0000
  O2          0.07506      0.12499      0.75228  1.0000
  O2          0.87625      0.93501      0.08745  1.0000
  O2          0.07987      0.92832      0.41897  1.0000
  O2          0.89739      0.19863      0.98194  1.0000
  O2          0.80453      0.69597      0.31566  1.0000
  O2          0.31547      0.08379      0.64651  1.0000
  O2          0.11091      0.79095      0.48124  1.0000
  O2          0.20726      0.28871      0.81620  1.0000
  O2          0.70448      0.90205      0.14830  1.0000
  O2          0.21464      0.90125      0.35601  1.0000
  O2          0.70229      0.80983      0.02533  1.0000
  O2          0.11314      0.29233      0.68889  1.0000
  O3          0.81014      0.10236      0.85266  1.0000
  O2          0.31494      0.19734      0.52252  1.0000
  O2          0.90745      0.69748      0.18909  1.0000
  O2          0.33122      0.64424      0.25250  1.0000
  O2          0.36779      0.66914      0.58641  1.0000
  O2          0.32197      0.66158      0.92046  1.0000
  O2          0.69130      0.34430      0.74967  1.0000
  O2          0.65028      0.32481      0.08577  1.0000
  O2          0.68717      0.31784      0.41820  1.0000
  O3          0.36698      0.31099      0.97673  1.0000
  O2          0.67905      0.04212      0.30627  1.0000
  O2          0.96888      0.61694      0.63913  1.0000
  O2          0.63820      0.66469      0.47370  1.0000
  O2          0.34284      0.95106      0.80565  1.0000
  O2          0.04937      0.37283      0.14090  1.0000
  O2          0.33852      0.37226      0.36551  1.0000
  O2          0.04535      0.66797      0.03190  1.0000
  O2          0.63893      0.94144      0.70001  1.0000
  O2          0.67677      0.62522      0.86731  1.0000
  O2          0.96944      0.32402      0.53082  1.0000
  O2          0.38035      0.04350      0.19819  1.0000
  O2          0.77078      0.29974      0.01419  1.0000
  O2          0.70532      0.46457      0.34620  1.0000
  O2          0.54546      0.21730      0.67991  1.0000
  O2          0.24316      0.69155      0.51341  1.0000
  O2          0.30210      0.51770      0.84981  1.0000
  O2          0.47384      0.76924      0.17970  1.0000
  O2          0.31356      0.76994      0.32531  1.0000
  O2          0.46851      0.69111      0.99239  1.0000
  O2          0.24112      0.52339      0.65882  1.0000
  O3          0.71021      0.23997      0.82692  1.0000
  O2          0.54529      0.29790      0.49168  1.0000
  O2          0.77665      0.46626      0.15885  1.0000
  O2          0.78843      0.53213      0.02930  1.0000
  O2          0.47395      0.24865      0.36326  1.0000
  O2          0.75719      0.19918      0.69641  1.0000
  O2          0.22806      0.45968      0.53048  1.0000
  O2          0.52820      0.72780      0.86793  1.0000
  O2          0.25815      0.78481      0.19719  1.0000
  O2          0.54476      0.78278      0.30773  1.0000
  O2          0.25998      0.45892      0.97531  1.0000
  O2          0.22879      0.74323      0.64075  1.0000
  O2          0.47908      0.20909      0.80471  1.0000
  O2          0.76291      0.52964      0.47428  1.0000
  O2          0.78970      0.24953      0.14098  1.0000
  O2          0.24010      0.31385      0.90233  1.0000
  O2          0.68433      0.90748      0.23334  1.0000
  O2          0.10198      0.75986      0.56618  1.0000
  O2          0.77809      0.67277      0.40050  1.0000
  O2          0.34043      0.08306      0.73310  1.0000
  O2          0.91348      0.23037      0.06755  1.0000
  O2          0.33374      0.22815      0.43767  1.0000
  O2          0.91032      0.67427      0.10418  1.0000
  O3          0.79667      0.08172      0.76781  1.0000
  O2          0.67777      0.76136      0.93997  1.0000
  O2          0.10550      0.31552      0.60378  1.0000
  O2          0.24044      0.90851      0.27096  1.0000
  O3          0.60602      0.57068      0.00107  1.0000
  O2          0.45095      0.02896      0.32637  1.0000
  O2          0.98204      0.40058      0.65875  1.0000
  O2          0.42368      0.43594      0.49360  1.0000
  O3          0.55835      0.94704      0.83108  1.0000
  O2          0.03629      0.58905      0.16036  1.0000
  O2          0.56703      0.58482      0.34560  1.0000
  O2          0.02959      0.43737      0.01186  1.0000
  O2          0.43243      0.96479      0.68178  1.0000
  O2          0.44739      0.40892      0.84728  1.0000
  O2          0.98507      0.55234      0.51027  1.0000
  O2          0.59256      0.02748      0.17800  1.0000
  O2          0.59072      0.16491      0.25183  1.0000
  O2          0.84713      0.41081      0.58376  1.0000
  O3          0.60414      0.40976      0.91444  1.0000
  O2          0.43054      0.82564      0.75405  1.0000
  O2          0.17089      0.58089      0.08612  1.0000
  O2          0.42737      0.57963      0.41963  1.0000
  F           0.46092      0.90372      0.25337  1.0000
  F           0.10810      0.54130      0.58656  1.0000
  F           0.47414      0.51803      0.92916  1.0000
  F           0.58603      0.08465      0.76240  1.0000
  F           0.91551      0.45436      0.08704  1.0000
  F           0.55853      0.44823      0.42037  1.0000
