data_cif

_audit_creation_method             'generated by GULP'

_symmetry_space_group_name_H-M     'P 1'
_symmetry_Int_Tables_number        1
_symmetry_cell_setting             triclinic

_cell_length_a                       11.9687
_cell_length_b                       11.9281
_cell_length_c                       29.3846
_cell_angle_alpha                   90.1837
_cell_angle_beta                    90.0350
_cell_angle_gamma                  119.7386

loop_
_atom_site_label
_atom_site_fract_x
_atom_site_fract_y
_atom_site_fract_z
_atom_site_occupancy
  Si          0.69960      0.37570      0.03389  1.0000
  Si          0.63862      0.31898      0.36988  1.0000
  Si          0.69677      0.29593      0.70099  1.0000
  Si          0.31485      0.61754      0.53508  1.0000
  Si          0.40502      0.68134      0.86836  1.0000
  Si          0.34416      0.70163      0.20101  1.0000
  Si          0.39733      0.69822      0.30198  1.0000
  Si          0.34900      0.63873      0.97086  1.0000
  Si          0.31716      0.67408      0.63600  1.0000
  Si          0.64230      0.29688      0.80178  1.0000
  Si          0.69289      0.37577      0.47066  1.0000
  Si          0.71903      0.32128      0.13669  1.0000
  Ge          0.53877      0.44008      0.96883  1.0000
  Si          0.60087      0.10834      0.30473  1.0000
  Si          0.90746      0.46922      0.63710  1.0000
  Si          0.48711      0.57998      0.46975  1.0000
  Si          0.44214      0.88893      0.80178  1.0000
  Si          0.13570      0.53076      0.13400  1.0000
  Si          0.43503      0.52654      0.36773  1.0000
  Si          0.13179      0.58997      0.03113  1.0000
  Si          0.49227      0.88557      0.70024  1.0000
  Si          0.61134      0.46713      0.87039  1.0000
  Si          0.90422      0.41428      0.53527  1.0000
  Si          0.55058      0.11211      0.20276  1.0000
  Si          0.32456      0.39714      0.85647  1.0000
  Si          0.62231      0.90230      0.18745  1.0000
  Si          0.11297      0.69420      0.52103  1.0000
  Si          0.71537      0.59698      0.35470  1.0000
  Si          0.41961      0.09470      0.68646  1.0000
  Ge          0.91348      0.31792      0.02643  1.0000
  Si          0.41495      0.29884      0.48491  1.0000
  Si          0.92241      0.60251      0.15040  1.0000
  Si          0.72151      0.09593      0.81699  1.0000
  Si          0.62923      0.71687      0.99022  1.0000
  Si          0.11608      0.39664      0.65150  1.0000
  Si          0.32065      0.90022      0.31839  1.0000
  Si          0.26075      0.34502      0.95885  1.0000
  Si          0.67828      0.90638      0.28850  1.0000
  Si          0.10830      0.74725      0.62190  1.0000
  Si          0.76578      0.65750      0.45555  1.0000
  Si          0.36137      0.08848      0.78735  1.0000
  Si          0.93247      0.24710      0.12193  1.0000
  Si          0.35797      0.24760      0.38383  1.0000
  Si          0.92219      0.66127      0.04838  1.0000
  Si          0.76995      0.08679      0.71584  1.0000
  Si          0.68881      0.75042      0.88684  1.0000
  Si          0.10616      0.33739      0.55049  1.0000
  Si          0.27283      0.91115      0.21753  1.0000
  Si          0.97622      0.13169      0.97296  1.0000
  Si          0.89667      0.84444      0.30475  1.0000
  Si          0.17107      0.02799      0.63715  1.0000
  Si          0.04561      0.87507      0.47055  1.0000
  Si          0.14296      0.14995      0.80474  1.0000
  Si          0.87304      0.97339      0.13978  1.0000
  Si          0.14023      0.96772      0.36957  1.0000
  Si          0.87557      0.89387      0.03757  1.0000
  Si          0.05003      0.15028      0.70312  1.0000
  Si          0.90164      0.03151      0.87085  1.0000
  Si          0.16800      0.11909      0.53592  1.0000
  Si          0.99359      0.84884      0.20391  1.0000
  O2          0.95783      0.01312      0.00497  1.0000
  O2          0.01645      0.92504      0.33803  1.0000
  O2          0.09491      0.07050      0.67148  1.0000
  O2          0.08749      0.99595      0.50385  1.0000
  O2          0.02521      0.07198      0.83890  1.0000
  O2          0.94924      0.92960      0.17335  1.0000
  O2          0.35880      0.57455      0.33453  1.0000
  O2          0.44210      0.75903      0.66796  1.0000
  O2          0.26174      0.67915      0.00133  1.0000
  O2          0.68243      0.42260      0.83328  1.0000
  O2          0.59969      0.23860      0.17091  1.0000
  O2          0.77781      0.33719      0.50333  1.0000
  O3          0.57589      0.34929      0.00772  1.0000
  O2          0.78146      0.42023      0.66906  1.0000
  O2          0.67754      0.23326      0.33759  1.0000
  O2          0.43709      0.65652      0.50205  1.0000
  O2          0.26053      0.58139      0.16683  1.0000
  O2          0.36762      0.76308      0.83427  1.0000
  O2          0.12755      0.23477      0.97856  1.0000
  O2          0.80458      0.90703      0.30892  1.0000
  O2          0.10784      0.87361      0.64224  1.0000
  O2          0.89150      0.78489      0.47539  1.0000
  O2          0.23409      0.08579      0.80773  1.0000
  O2          0.93203      0.12621      0.14800  1.0000
  O2          0.23160      0.12165      0.36363  1.0000
  O2          0.92238      0.78873      0.02968  1.0000
  O2          0.89648      0.08653      0.69607  1.0000
  O2          0.81162      0.87639      0.86554  1.0000
  O2          0.10475      0.21021      0.53007  1.0000
  O2          0.14697      0.91249      0.19765  1.0000
  O2          0.95418      0.85663      0.25502  1.0000
  O2          0.15496      0.06841      0.58691  1.0000
  O2          0.94824      0.07342      0.92166  1.0000
  O2          0.08631      0.13908      0.75462  1.0000
  O2          0.89746      0.93944      0.08958  1.0000
  O2          0.08864      0.93009      0.42038  1.0000
  O3          0.89754      0.19924      0.98450  1.0000
  O2          0.81431      0.69272      0.31644  1.0000
  O2          0.32309      0.09629      0.64791  1.0000
  O2          0.11394      0.79150      0.48236  1.0000
  O2          0.22873      0.30136      0.81731  1.0000
  O2          0.71968      0.90077      0.14928  1.0000
  O2          0.22176      0.89728      0.35695  1.0000
  O2          0.72372      0.82816      0.02598  1.0000
  O2          0.11902      0.30154      0.69038  1.0000
  O2          0.81978      0.09936      0.85547  1.0000
  O2          0.31896      0.20086      0.52339  1.0000
  O2          0.92484      0.69805      0.18993  1.0000
  O2          0.34229      0.64184      0.25115  1.0000
  O2          0.37299      0.67396      0.58545  1.0000
  O2          0.35090      0.68400      0.91857  1.0000
  O2          0.69826      0.35290      0.75143  1.0000
  O2          0.66344      0.32426      0.08711  1.0000
  O2          0.69450      0.31833      0.42040  1.0000
  O3          0.37276      0.32493      0.97777  1.0000
  O2          0.68795      0.03876      0.30735  1.0000
  O2          0.97632      0.62563      0.64047  1.0000
  O2          0.64290      0.66777      0.47338  1.0000
  O2          0.35370      0.95671      0.80582  1.0000
  O2          0.06598      0.37511      0.13769  1.0000
  O2          0.34802      0.37007      0.36512  1.0000
  O2          0.05630      0.67229      0.03156  1.0000
  O2          0.64825      0.95359      0.69747  1.0000
  O2          0.69565      0.62573      0.86893  1.0000
  O2          0.97343      0.32675      0.53221  1.0000
  O2          0.39464      0.04321      0.19921  1.0000
  O3          0.76369      0.29988      0.01061  1.0000
  O2          0.71434      0.46193      0.34732  1.0000
  O2          0.55329      0.22829      0.67889  1.0000
  O2          0.24603      0.69280      0.51306  1.0000
  O2          0.33295      0.53540      0.84875  1.0000
  O2          0.48745      0.77006      0.17902  1.0000
  O2          0.32125      0.76566      0.32467  1.0000
  O2          0.49307      0.71706      0.99155  1.0000
  O2          0.24953      0.53115      0.65865  1.0000
  O2          0.71678      0.22801      0.82441  1.0000
  O2          0.54979      0.30058      0.49285  1.0000
  O2          0.79256      0.46671      0.15767  1.0000
  O2          0.80025      0.53289      0.02989  1.0000
  O2          0.48295      0.24536      0.36452  1.0000
  O2          0.76949      0.21223      0.69577  1.0000
  O2          0.23224      0.46136      0.53050  1.0000
  O2          0.55893      0.74352      0.86796  1.0000
  O2          0.26913      0.78338      0.19731  1.0000
  O2          0.55289      0.77963      0.30743  1.0000
  O2          0.28293      0.48480      0.97593  1.0000
  O2          0.23520      0.74861      0.64123  1.0000
  O2          0.48633      0.21587      0.80653  1.0000
  O2          0.76665      0.53215      0.47560  1.0000
  O2          0.80765      0.25445      0.14004  1.0000
  O2          0.25244      0.33284      0.90333  1.0000
  O2          0.69561      0.90454      0.23409  1.0000
  O2          0.10919      0.76586      0.56743  1.0000
  O2          0.78517      0.67311      0.40111  1.0000
  O2          0.34400      0.08956      0.73284  1.0000
  O3          0.92640      0.21674      0.06941  1.0000
  O2          0.34084      0.22859      0.43829  1.0000
  O2          0.92081      0.66980      0.10334  1.0000
  O2          0.79044      0.09125      0.77024  1.0000
  O2          0.70155      0.76922      0.94113  1.0000
  O2          0.11007      0.32076      0.60496  1.0000
  O2          0.25242      0.90833      0.27194  1.0000
  O3          0.61628      0.58390      0.00401  1.0000
  O2          0.46011      0.02429      0.32788  1.0000
  O2          0.99112      0.41152      0.66050  1.0000
  O2          0.42914      0.43900      0.49321  1.0000
  O2          0.58298      0.96908      0.82534  1.0000
  O2          0.04575      0.58390      0.15493  1.0000
  O2          0.57645      0.58329      0.34513  1.0000
  O3          0.05587      0.45514      0.00544  1.0000
  O2          0.43476      0.96963      0.67705  1.0000
  O2          0.46469      0.41211      0.85087  1.0000
  O2          0.98759      0.55517      0.51204  1.0000
  O2          0.60906      0.02896      0.17934  1.0000
  O2          0.60141      0.16332      0.25409  1.0000
  O2          0.85294      0.41558      0.58632  1.0000
  O3          0.61557      0.41507      0.91938  1.0000
  O2          0.43933      0.83258      0.75114  1.0000
  O2          0.18148      0.58189      0.08266  1.0000
  O2          0.43474      0.58043      0.41866  1.0000
  F           0.47081      0.90132      0.25256  1.0000
  F           0.11362      0.54544      0.58612  1.0000
  F           0.49220      0.53326      0.93039  1.0000
  F           0.56752      0.09209      0.75162  1.0000
  F           0.92316      0.42700      0.07500  1.0000
  F           0.56570      0.44885      0.41962  1.0000
