data_cif

_audit_creation_method             'generated by GULP'

_symmetry_space_group_name_H-M     'P 1'
_symmetry_Int_Tables_number        1
_symmetry_cell_setting             triclinic

_cell_length_a                       11.9106
_cell_length_b                       11.9665
_cell_length_c                       29.5016
_cell_angle_alpha                   89.5390
_cell_angle_beta                    90.5519
_cell_angle_gamma                  119.7271

loop_
_atom_site_label
_atom_site_fract_x
_atom_site_fract_y
_atom_site_fract_z
_atom_site_occupancy
  Si          0.69960      0.37570      0.03389  1.0000
  Si          0.61482      0.32469      0.36906  1.0000
  Si          0.67263      0.28318      0.69893  1.0000
  Si          0.29331      0.61134      0.53644  1.0000
  Si          0.38169      0.66709      0.86877  1.0000
  Si          0.32984      0.69946      0.20175  1.0000
  Si          0.37809      0.69421      0.30483  1.0000
  Si          0.32642      0.61520      0.97090  1.0000
  Si          0.29176      0.66291      0.63681  1.0000
  Si          0.62197      0.28749      0.79942  1.0000
  Si          0.67171      0.37359      0.46917  1.0000
  Si          0.70849      0.32430      0.13546  1.0000
  Ge          0.53231      0.42653      0.96592  1.0000
  Si          0.59133      0.11998      0.30452  1.0000
  Si          0.88253      0.45821      0.63513  1.0000
  Si          0.46339      0.57307      0.47146  1.0000
  Si          0.41858      0.87678      0.80255  1.0000
  Si          0.11763      0.52949      0.13597  1.0000
  Si          0.40481      0.52042      0.37037  1.0000
  Si          0.11435      0.57826      0.03483  1.0000
  Si          0.46613      0.87202      0.70128  1.0000
  Si          0.59568      0.45928      0.86694  1.0000
  Si          0.88303      0.40857      0.53378  1.0000
  Si          0.53699      0.11484      0.20068  1.0000
  Si          0.30654      0.38634      0.85419  1.0000
  Si          0.61091      0.90258      0.18415  1.0000
  Si          0.09172      0.68947      0.52085  1.0000
  Si          0.68899      0.60178      0.35391  1.0000
  Si          0.39354      0.08107      0.68601  1.0000
  Si          0.90466      0.29908      0.02093  1.0000
  Si          0.39339      0.29324      0.48533  1.0000
  Si          0.90916      0.60199      0.14998  1.0000
  Si          0.69844      0.08555      0.81559  1.0000
  Si          0.61137      0.69832      0.98891  1.0000
  Si          0.09131      0.38540      0.65064  1.0000
  Si          0.30682      0.90507      0.31888  1.0000
  Si          0.25205      0.32806      0.95632  1.0000
  Ge          0.64462      0.90919      0.28417  1.0000
  Si          0.08266      0.73643      0.62146  1.0000
  Si          0.74306      0.65441      0.45489  1.0000
  Si          0.34023      0.07769      0.78664  1.0000
  Si          0.91815      0.25174      0.12149  1.0000
  Si          0.33133      0.24336      0.38498  1.0000
  Si          0.91294      0.65654      0.04903  1.0000
  Si          0.74540      0.07409      0.71530  1.0000
  Si          0.66886      0.73875      0.88585  1.0000
  Si          0.08470      0.32995      0.55007  1.0000
  Si          0.25603      0.91304      0.21672  1.0000
  Si          0.96764      0.11810      0.96960  1.0000
  Si          0.87154      0.84879      0.30228  1.0000
  Si          0.14441      0.01537      0.63589  1.0000
  Si          0.02439      0.87049      0.46944  1.0000
  Si          0.12254      0.14030      0.80315  1.0000
  Si          0.85757      0.97304      0.13569  1.0000
  Si          0.11722      0.96378      0.36838  1.0000
  Si          0.85801      0.88112      0.03602  1.0000
  Si          0.02634      0.13835      0.70183  1.0000
  Si          0.88015      0.02089      0.86856  1.0000
  Si          0.14593      0.11164      0.53506  1.0000
  Si          0.97184      0.84557      0.20267  1.0000
  O2          0.93499      0.99881      0.00205  1.0000
  O2          0.99671      0.91863      0.33532  1.0000
  O2          0.06952      0.05902      0.66995  1.0000
  O2          0.06706      0.99246      0.50168  1.0000
  O2          0.00399      0.06207      0.83707  1.0000
  O2          0.93080      0.92809      0.17073  1.0000
  O2          0.32573      0.56810      0.33769  1.0000
  O2          0.41557      0.74580      0.66975  1.0000
  O2          0.23961      0.65324      0.00187  1.0000
  O2          0.66495      0.41534      0.82939  1.0000
  O2          0.58529      0.23963      0.16823  1.0000
  O2          0.75805      0.33358      0.50110  1.0000
  O3          0.58061      0.33848      0.00219  1.0000
  O2          0.75481      0.40630      0.66645  1.0000
  O2          0.65809      0.24809      0.33506  1.0000
  O2          0.41667      0.65032      0.50425  1.0000
  O2          0.24367      0.57903      0.16897  1.0000
  O2          0.34446      0.75187      0.83572  1.0000
  O2          0.12003      0.21017      0.97499  1.0000
  O3          0.79027      0.91738      0.30584  1.0000
  O2          0.08042      0.86139      0.64149  1.0000
  O2          0.86995      0.78038      0.47488  1.0000
  O2          0.21386      0.07648      0.80734  1.0000
  O2          0.92060      0.12666      0.14198  1.0000
  O2          0.20562      0.11831      0.36437  1.0000
  O2          0.91303      0.78338      0.02882  1.0000
  O2          0.87163      0.07316      0.69568  1.0000
  O2          0.79056      0.86639      0.86471  1.0000
  O2          0.08359      0.20401      0.52969  1.0000
  O2          0.12750      0.90911      0.19705  1.0000
  O2          0.93225      0.85205      0.25331  1.0000
  O2          0.12882      0.05593      0.58557  1.0000
  O2          0.92836      0.06461      0.91915  1.0000
  O2          0.06598      0.12811      0.75305  1.0000
  O2          0.88290      0.93669      0.08627  1.0000
  O2          0.06478      0.92064      0.41879  1.0000
  O2          0.89690      0.19846      0.98238  1.0000
  O2          0.78233      0.69668      0.31502  1.0000
  O2          0.29682      0.08244      0.64727  1.0000
  O2          0.09420      0.78841      0.48250  1.0000
  O2          0.20803      0.29143      0.81559  1.0000
  O2          0.70282      0.90561      0.14272  1.0000
  O2          0.20711      0.90153      0.35643  1.0000
  O2          0.70483      0.80910      0.02475  1.0000
  O2          0.09394      0.28911      0.68931  1.0000
  O2          0.79815      0.08919      0.85407  1.0000
  O2          0.29827      0.19398      0.52393  1.0000
  O2          0.90528      0.69644      0.18829  1.0000
  O2          0.33007      0.64611      0.25261  1.0000
  O2          0.35037      0.66556      0.58692  1.0000
  O2          0.32735      0.66428      0.91912  1.0000
  O2          0.67636      0.34086      0.74897  1.0000
  O2          0.65098      0.32547      0.08570  1.0000
  O2          0.67160      0.31816      0.41897  1.0000
  O3          0.36559      0.30992      0.97556  1.0000
  O3          0.68185      0.05823      0.30943  1.0000
  O2          0.95011      0.61378      0.63941  1.0000
  O2          0.61987      0.66119      0.47447  1.0000
  O2          0.33143      0.94623      0.80617  1.0000
  O2          0.05010      0.37387      0.14053  1.0000
  O2          0.31723      0.36479      0.36791  1.0000
  O2          0.04748      0.66790      0.03155  1.0000
  O2          0.62273      0.94029      0.69829  1.0000
  O2          0.67889      0.61757      0.86685  1.0000
  O2          0.95207      0.32090      0.53149  1.0000
  O2          0.37987      0.04316      0.19850  1.0000
  O2          0.77137      0.30007      0.01435  1.0000
  O2          0.68991      0.46809      0.34758  1.0000
  O2          0.52730      0.21408      0.67791  1.0000
  O2          0.22585      0.68838      0.51429  1.0000
  O2          0.31008      0.52278      0.84841  1.0000
  O2          0.47312      0.76915      0.17970  1.0000
  O2          0.30721      0.77095      0.32388  1.0000
  O2          0.47200      0.69295      0.99107  1.0000
  O2          0.22428      0.51956      0.65907  1.0000
  O2          0.69591      0.21815      0.82285  1.0000
  O2          0.53004      0.29695      0.49282  1.0000
  O2          0.77815      0.46629      0.15830  1.0000
  O2          0.78965      0.53181      0.02876  1.0000
  O2          0.45796      0.24663      0.36435  1.0000
  O2          0.74421      0.19842      0.69446  1.0000
  O2          0.21085      0.45589      0.53125  1.0000
  O2          0.53650      0.73026      0.86804  1.0000
  O2          0.26566      0.79084      0.19995  1.0000
  O3          0.53102      0.76612      0.31208  1.0000
  O2          0.26206      0.46120      0.97414  1.0000
  O2          0.20979      0.73771      0.64167  1.0000
  O2          0.46549      0.20635      0.80494  1.0000
  O2          0.74720      0.52950      0.47382  1.0000
  O2          0.79017      0.24903      0.14049  1.0000
  O2          0.24002      0.31768      0.90122  1.0000
  O3          0.69257      0.90521      0.22743  1.0000
  O2          0.08538      0.75744      0.56727  1.0000
  O2          0.75808      0.67451      0.40074  1.0000
  O2          0.31970      0.07706      0.73241  1.0000
  O2          0.91556      0.23142      0.06730  1.0000
  O2          0.31700      0.22181      0.43928  1.0000
  O2          0.90957      0.67383      0.10325  1.0000
  O2          0.76808      0.08027      0.76951  1.0000
  O2          0.68290      0.75444      0.94000  1.0000
  O2          0.08735      0.31161      0.60440  1.0000
  O2          0.24617      0.91448      0.27088  1.0000
  O3          0.60388      0.56721      0.00178  1.0000
  O2          0.44829      0.02700      0.32640  1.0000
  O2          0.96472      0.39853      0.65910  1.0000
  O2          0.40526      0.43152      0.49454  1.0000
  O2          0.56102      0.95802      0.82540  1.0000
  O2          0.03862      0.59280      0.15888  1.0000
  O2          0.54471      0.57813      0.34668  1.0000
  O2          0.03128      0.43769      0.01141  1.0000
  O2          0.40835      0.95604      0.67791  1.0000
  O2          0.44876      0.40643      0.84726  1.0000
  O2          0.96772      0.55028      0.51141  1.0000
  O2          0.58937      0.02586      0.17880  1.0000
  O2          0.58604      0.16311      0.25191  1.0000
  O2          0.82935      0.40759      0.58433  1.0000
  O3          0.60357      0.40455      0.91514  1.0000
  O2          0.41440      0.82019      0.75234  1.0000
  O2          0.17323      0.58077      0.08519  1.0000
  O2          0.40716      0.57408      0.42110  1.0000
  F           0.49513      0.90679      0.25756  1.0000
  F           0.09073      0.53721      0.58682  1.0000
  F           0.47715      0.51778      0.92882  1.0000
  F           0.54444      0.07992      0.75199  1.0000
  F           0.91740      0.45439      0.08673  1.0000
  F           0.53897      0.44335      0.42131  1.0000
