data_cif

_audit_creation_method             'generated by GULP'

_symmetry_space_group_name_H-M     'P 1'
_symmetry_Int_Tables_number        1
_symmetry_cell_setting             triclinic

_cell_length_a                       11.9428
_cell_length_b                       11.8950
_cell_length_c                       29.5029
_cell_angle_alpha                   90.0608
_cell_angle_beta                    89.8338
_cell_angle_gamma                  119.4095

loop_
_atom_site_label
_atom_site_fract_x
_atom_site_fract_y
_atom_site_fract_z
_atom_site_occupancy
  Si          0.69960      0.37570      0.03389  1.0000
  Si          0.62332      0.32331      0.36665  1.0000
  Si          0.67026      0.27111      0.69846  1.0000
  Si          0.30116      0.61876      0.53459  1.0000
  Si          0.38449      0.66375      0.86939  1.0000
  Si          0.32763      0.70169      0.20068  1.0000
  Si          0.38278      0.70384      0.30129  1.0000
  Si          0.32698      0.61303      0.97147  1.0000
  Si          0.30196      0.66745      0.63760  1.0000
  Si          0.62135      0.28109      0.79867  1.0000
  Si          0.67772      0.37653      0.46695  1.0000
  Si          0.70597      0.32504      0.13549  1.0000
  Ge          0.53134      0.42244      0.96596  1.0000
  Si          0.58377      0.11294      0.30145  1.0000
  Si          0.87651      0.45673      0.63519  1.0000
  Si          0.47293      0.57956      0.46884  1.0000
  Si          0.42395      0.87253      0.80291  1.0000
  Si          0.11735      0.52948      0.13601  1.0000
  Si          0.42050      0.53251      0.36733  1.0000
  Si          0.11364      0.57773      0.03483  1.0000
  Si          0.47673      0.86570      0.70219  1.0000
  Si          0.59578      0.45418      0.86694  1.0000
  Si          0.88683      0.41242      0.53150  1.0000
  Si          0.53252      0.11442      0.19999  1.0000
  Si          0.30822      0.38143      0.85477  1.0000
  Si          0.60470      0.90319      0.18579  1.0000
  Si          0.09827      0.69798      0.51607  1.0000
  Si          0.70144      0.60318      0.35295  1.0000
  Si          0.39419      0.06812      0.68473  1.0000
  Si          0.90491      0.29884      0.02066  1.0000
  Si          0.39987      0.29777      0.48269  1.0000
  Si          0.90805      0.60173      0.14997  1.0000
  Si          0.70142      0.08153      0.81579  1.0000
  Si          0.61013      0.69574      0.98908  1.0000
  Si          0.09155      0.38599      0.65073  1.0000
  Si          0.30490      0.90605      0.31607  1.0000
  Si          0.25241      0.32408      0.95693  1.0000
  Si          0.66196      0.91076      0.28628  1.0000
  Ge          0.08703      0.72054      0.61613  1.0000
  Si          0.75166      0.65904      0.45366  1.0000
  Si          0.34142      0.07077      0.78570  1.0000
  Si          0.91604      0.25252      0.12111  1.0000
  Si          0.34231      0.25202      0.38196  1.0000
  Si          0.91221      0.65616      0.04929  1.0000
  Si          0.75247      0.06875      0.71567  1.0000
  Si          0.67005      0.73555      0.88599  1.0000
  Si          0.08848      0.33195      0.54853  1.0000
  Si          0.25540      0.91307      0.21552  1.0000
  Si          0.96852      0.11620      0.96925  1.0000
  Si          0.88162      0.85037      0.30199  1.0000
  Si          0.14776      0.00684      0.63399  1.0000
  Si          0.03057      0.87631      0.46665  1.0000
  Si          0.12518      0.13657      0.80254  1.0000
  Si          0.85442      0.97284      0.13656  1.0000
  Si          0.12370      0.97431      0.36663  1.0000
  Si          0.85416      0.87962      0.03614  1.0000
  Si          0.03360      0.13755      0.70096  1.0000
  Si          0.88244      0.01768      0.86826  1.0000
  Si          0.15527      0.11452      0.53431  1.0000
  Si          0.97547      0.84950      0.20123  1.0000
  O2          0.93185      0.99668      0.00203  1.0000
  O2          0.00242      0.93285      0.33426  1.0000
  O2          0.08286      0.06432      0.66856  1.0000
  O2          0.07570      0.99432      0.50135  1.0000
  O2          0.00447      0.05722      0.83565  1.0000
  O2          0.93259      0.93118      0.17001  1.0000
  O2          0.34435      0.58179      0.33483  1.0000
  O2          0.42781      0.73863      0.67025  1.0000
  O2          0.23948      0.65236      0.00208  1.0000
  O2          0.66399      0.40979      0.82862  1.0000
  O2          0.58235      0.24063      0.16801  1.0000
  O2          0.76352      0.33655      0.49885  1.0000
  O3          0.58146      0.33669      0.00226  1.0000
  O2          0.74585      0.39168      0.66456  1.0000
  O2          0.66138      0.23853      0.33367  1.0000
  O2          0.42342      0.65487      0.50232  1.0000
  O2          0.24323      0.57867      0.16825  1.0000
  O2          0.34821      0.74866      0.83632  1.0000
  O2          0.12017      0.20628      0.97533  1.0000
  O2          0.78893      0.91264      0.30661  1.0000
  O3          0.07742      0.85723      0.63768  1.0000
  O2          0.87677      0.78614      0.47327  1.0000
  O2          0.21480      0.07039      0.80617  1.0000
  O2          0.91589      0.12653      0.14223  1.0000
  O2          0.21574      0.12847      0.36145  1.0000
  O2          0.91138      0.78296      0.02930  1.0000
  O2          0.87926      0.06923      0.69569  1.0000
  O2          0.79235      0.86269      0.86494  1.0000
  O2          0.09276      0.20815      0.52852  1.0000
  O2          0.12918      0.91298      0.19540  1.0000
  O2          0.93623      0.86067      0.25206  1.0000
  O2          0.14323      0.06486      0.58496  1.0000
  O2          0.93264      0.06284      0.91854  1.0000
  O2          0.07403      0.13050      0.75216  1.0000
  O2          0.87389      0.93459      0.08648  1.0000
  O2          0.06818      0.93626      0.41696  1.0000
  O2          0.89878      0.19868      0.98162  1.0000
  O2          0.80045      0.69924      0.31497  1.0000
  O2          0.29985      0.06618      0.64552  1.0000
  O2          0.09761      0.78826      0.47447  1.0000
  O2          0.21047      0.28701      0.81626  1.0000
  O2          0.70213      0.90228      0.14741  1.0000
  O2          0.20626      0.90410      0.35467  1.0000
  O2          0.70232      0.80723      0.02474  1.0000
  O2          0.09383      0.28898      0.68855  1.0000
  O2          0.80022      0.08623      0.85434  1.0000
  O2          0.30563      0.19813      0.52108  1.0000
  O2          0.90608      0.69867      0.18844  1.0000
  O2          0.32712      0.64518      0.25120  1.0000
  O2          0.35198      0.66934      0.58556  1.0000
  O2          0.32954      0.66197      0.91973  1.0000
  O2          0.67648      0.33320      0.74816  1.0000
  O2          0.65027      0.32620      0.08572  1.0000
  O2          0.67881      0.31994      0.41680  1.0000
  O3          0.36544      0.30570      0.97585  1.0000
  O2          0.67138      0.04345      0.30471  1.0000
  O3          0.93697      0.60812      0.64084  1.0000
  O2          0.62824      0.66719      0.47281  1.0000
  O2          0.33584      0.94148      0.80618  1.0000
  O2          0.04837      0.37306      0.13987  1.0000
  O2          0.33293      0.37642      0.36486  1.0000
  O2          0.04648      0.66761      0.03132  1.0000
  O2          0.63236      0.93273      0.69940  1.0000
  O2          0.67941      0.61280      0.86702  1.0000
  O2          0.95905      0.32690      0.52995  1.0000
  O2          0.37663      0.04551      0.19713  1.0000
  O2          0.77229      0.30001      0.01412  1.0000
  O2          0.69962      0.46761      0.34530  1.0000
  O2          0.52662      0.20252      0.67776  1.0000
  O2          0.23231      0.69375      0.51240  1.0000
  O2          0.31270      0.51892      0.84908  1.0000
  O2          0.47108      0.76970      0.17858  1.0000
  O2          0.30677      0.77222      0.32370  1.0000
  O2          0.47125      0.69074      0.99158  1.0000
  O2          0.22466      0.51961      0.65645  1.0000
  O2          0.69543      0.21325      0.82286  1.0000
  O2          0.53585      0.30101      0.49009  1.0000
  O2          0.77571      0.46788      0.15832  1.0000
  O2          0.78916      0.53208      0.02906  1.0000
  O2          0.46794      0.25201      0.36195  1.0000
  O2          0.74739      0.19071      0.69396  1.0000
  O2          0.21094      0.46381      0.53221  1.0000
  O2          0.53854      0.72692      0.86828  1.0000
  O2          0.25514      0.78615      0.19625  1.0000
  O2          0.53832      0.78401      0.30612  1.0000
  O2          0.26286      0.45845      0.97490  1.0000
  O3          0.22875      0.74794      0.64470  1.0000
  O2          0.46536      0.20085      0.80336  1.0000
  O2          0.75387      0.53283      0.47274  1.0000
  O2          0.78857      0.25061      0.14031  1.0000
  O2          0.24139      0.31328      0.90184  1.0000
  O2          0.67937      0.90758      0.23208  1.0000
  O3          0.09255      0.77455      0.55939  1.0000
  O2          0.77007      0.67674      0.39945  1.0000
  O2          0.32066      0.06431      0.73156  1.0000
  O2          0.91419      0.23038      0.06695  1.0000
  O2          0.32631      0.22947      0.43618  1.0000
  O2          0.90979      0.67490      0.10356  1.0000
  O2          0.77398      0.07732      0.76987  1.0000
  O2          0.68223      0.75159      0.94013  1.0000
  O2          0.08548      0.31840      0.60271  1.0000
  O2          0.23548      0.91170      0.26981  1.0000
  O3          0.60240      0.56406      0.00179  1.0000
  O2          0.44326      0.03131      0.32510  1.0000
  O2          0.96854      0.40514      0.65757  1.0000
  O2          0.41120      0.43708      0.49173  1.0000
  O2          0.56518      0.95337      0.82569  1.0000
  O2          0.03523      0.59010      0.15914  1.0000
  O2          0.56174      0.58886      0.34459  1.0000
  O2          0.03165      0.43693      0.01122  1.0000
  O2          0.41899      0.94792      0.67787  1.0000
  O2          0.44970      0.40086      0.84767  1.0000
  O2          0.97634      0.55402      0.50995  1.0000
  O2          0.58922      0.02860      0.17715  1.0000
  O2          0.58399      0.16681      0.25088  1.0000
  O2          0.83623      0.41196      0.58245  1.0000
  O3          0.60279      0.39906      0.91497  1.0000
  O2          0.42222      0.81379      0.75301  1.0000
  O2          0.17136      0.58052      0.08505  1.0000
  O2          0.42074      0.58477      0.41846  1.0000
  F           0.45571      0.90517      0.25193  1.0000
  F           0.09142      0.57499      0.58954  1.0000
  F           0.47711      0.51405      0.92912  1.0000
  F           0.55048      0.07333      0.75216  1.0000
  F           0.91582      0.45457      0.08618  1.0000
  F           0.55094      0.45227      0.41927  1.0000
