data_cif

_audit_creation_method             'generated by GULP'

_symmetry_space_group_name_H-M     'P 1'
_symmetry_Int_Tables_number        1
_symmetry_cell_setting             triclinic

_cell_length_a                       11.9433
_cell_length_b                       11.9662
_cell_length_c                       29.4977
_cell_angle_alpha                   89.7555
_cell_angle_beta                    90.4476
_cell_angle_gamma                  119.9939

loop_
_atom_site_label
_atom_site_fract_x
_atom_site_fract_y
_atom_site_fract_z
_atom_site_occupancy
  Si          0.69960      0.37570      0.03389  1.0000
  Si          0.62250      0.31280      0.36598  1.0000
  Si          0.67162      0.27796      0.69945  1.0000
  Si          0.29300      0.60505      0.53643  1.0000
  Si          0.38124      0.66452      0.86927  1.0000
  Si          0.32916      0.70447      0.20148  1.0000
  Si          0.38629      0.70936      0.30187  1.0000
  Si          0.32554      0.61417      0.97135  1.0000
  Si          0.29155      0.65746      0.63691  1.0000
  Si          0.62148      0.28429      0.79990  1.0000
  Si          0.67092      0.36235      0.46892  1.0000
  Si          0.70865      0.32546      0.13538  1.0000
  Ge          0.53102      0.42454      0.96646  1.0000
  Si          0.59550      0.11336      0.30122  1.0000
  Si          0.88161      0.45105      0.63526  1.0000
  Si          0.46419      0.56958      0.47087  1.0000
  Si          0.41768      0.87337      0.80297  1.0000
  Si          0.11868      0.53129      0.13603  1.0000
  Si          0.40930      0.52629      0.36698  1.0000
  Si          0.11354      0.57913      0.03487  1.0000
  Si          0.46489      0.86752      0.70173  1.0000
  Si          0.59466      0.45631      0.86746  1.0000
  Si          0.88380      0.40228      0.53394  1.0000
  Si          0.53847      0.11483      0.20017  1.0000
  Si          0.30634      0.38347      0.85479  1.0000
  Si          0.60774      0.90404      0.18622  1.0000
  Si          0.09238      0.68364      0.52087  1.0000
  Si          0.69450      0.59515      0.35270  1.0000
  Si          0.39236      0.07583      0.68656  1.0000
  Si          0.90382      0.29949      0.02100  1.0000
  Si          0.38986      0.28339      0.48720  1.0000
  Si          0.91036      0.60368      0.14991  1.0000
  Si          0.69846      0.08286      0.81627  1.0000
  Si          0.61004      0.69703      0.98952  1.0000
  Si          0.09029      0.37872      0.65078  1.0000
  Si          0.31242      0.91215      0.31784  1.0000
  Si          0.25099      0.32623      0.95690  1.0000
  Si          0.66915      0.91046      0.28646  1.0000
  Si          0.08255      0.73039      0.62155  1.0000
  Si          0.74601      0.65006      0.45488  1.0000
  Si          0.33884      0.07363      0.78718  1.0000
  Si          0.91769      0.25246      0.12144  1.0000
  Ge          0.35559      0.26130      0.38710  1.0000
  Si          0.91307      0.65731      0.04901  1.0000
  Si          0.74437      0.06974      0.71586  1.0000
  Si          0.66770      0.73612      0.88645  1.0000
  Si          0.08417      0.32338      0.55008  1.0000
  Si          0.25950      0.91544      0.21686  1.0000
  Si          0.96592      0.11686      0.97063  1.0000
  Si          0.88421      0.84446      0.30374  1.0000
  Si          0.14227      0.00871      0.63734  1.0000
  Si          0.02974      0.86719      0.46944  1.0000
  Si          0.12158      0.13644      0.80405  1.0000
  Si          0.85720      0.97330      0.13775  1.0000
  Si          0.12959      0.97527      0.36985  1.0000
  Si          0.85594      0.88036      0.03747  1.0000
  Si          0.02453      0.13240      0.70284  1.0000
  Si          0.87934      0.01841      0.86950  1.0000
  Si          0.14550      0.10561      0.53709  1.0000
  Si          0.97781      0.84944      0.20263  1.0000
  O2          0.93323      0.00014      0.00429  1.0000
  O2          0.00257      0.91858      0.33775  1.0000
  O2          0.06745      0.05069      0.67205  1.0000
  O2          0.07015      0.98533      0.50360  1.0000
  O2          0.00393      0.05944      0.83840  1.0000
  O2          0.93422      0.93314      0.17269  1.0000
  O2          0.34298      0.58886      0.33619  1.0000
  O2          0.41476      0.74088      0.67000  1.0000
  O2          0.23929      0.65338      0.00192  1.0000
  O2          0.66415      0.41250      0.82982  1.0000
  O2          0.58583      0.24036      0.16804  1.0000
  O2          0.75880      0.32648      0.50096  1.0000
  O3          0.58010      0.33732      0.00228  1.0000
  O2          0.75437      0.40043      0.66658  1.0000
  O2          0.67508      0.23932      0.33367  1.0000
  O2          0.41672      0.64510      0.50408  1.0000
  O2          0.24461      0.58152      0.16879  1.0000
  O2          0.34384      0.74851      0.83607  1.0000
  O2          0.11865      0.20830      0.97545  1.0000
  O2          0.79508      0.91018      0.30716  1.0000
  O2          0.07952      0.85434      0.64219  1.0000
  O2          0.87403      0.77400      0.47464  1.0000
  O2          0.21240      0.07228      0.80766  1.0000
  O2          0.91920      0.12739      0.14226  1.0000
  O3          0.20986      0.12478      0.36586  1.0000
  O2          0.91221      0.78424      0.02939  1.0000
  O2          0.87015      0.06818      0.69626  1.0000
  O2          0.78916      0.86379      0.86500  1.0000
  O2          0.08207      0.19650      0.53003  1.0000
  O2          0.13222      0.91475      0.19680  1.0000
  O2          0.93932      0.85382      0.25399  1.0000
  O2          0.12320      0.04930      0.58756  1.0000
  O2          0.92556      0.06036      0.92037  1.0000
  O2          0.06323      0.12386      0.75422  1.0000
  O2          0.87725      0.93221      0.08830  1.0000
  O2          0.07108      0.92023      0.41956  1.0000
  O2          0.89634      0.19860      0.98237  1.0000
  O2          0.79440      0.69239      0.31552  1.0000
  O2          0.29508      0.07664      0.64802  1.0000
  O2          0.09637      0.78242      0.48239  1.0000
  O2          0.20809      0.28810      0.81603  1.0000
  O2          0.70404      0.90311      0.14765  1.0000
  O2          0.21905      0.91255      0.35705  1.0000
  O2          0.70323      0.80809      0.02550  1.0000
  O2          0.09334      0.28302      0.68938  1.0000
  O2          0.79845      0.08728      0.85458  1.0000
  O2          0.29949      0.19244      0.52879  1.0000
  O2          0.90813      0.69987      0.18807  1.0000
  O2          0.32969      0.64810      0.25191  1.0000
  O2          0.34996      0.66037      0.58687  1.0000
  O2          0.32674      0.66238      0.91945  1.0000
  O2          0.67574      0.33711      0.74932  1.0000
  O2          0.65094      0.32543      0.08558  1.0000
  O2          0.67033      0.31054      0.41822  1.0000
  O3          0.36406      0.30810      0.97615  1.0000
  O2          0.68339      0.04503      0.30410  1.0000
  O2          0.94951      0.60700      0.63889  1.0000
  O2          0.62112      0.65470      0.47319  1.0000
  O2          0.33045      0.94234      0.80652  1.0000
  O2          0.05071      0.37510      0.13982  1.0000
  O3          0.31864      0.37464      0.36228  1.0000
  O2          0.04714      0.66892      0.03097  1.0000
  O2          0.62136      0.93572      0.69862  1.0000
  O2          0.67785      0.61503      0.86730  1.0000
  O2          0.95278      0.31516      0.53077  1.0000
  O2          0.38179      0.04598      0.19746  1.0000
  O2          0.77080      0.30008      0.01394  1.0000
  O2          0.69389      0.46082      0.34739  1.0000
  O2          0.52654      0.20891      0.67816  1.0000
  O2          0.22505      0.68054      0.51394  1.0000
  O2          0.30990      0.51976      0.84881  1.0000
  O2          0.47190      0.77175      0.17860  1.0000
  O2          0.31117      0.77704      0.32387  1.0000
  O2          0.47132      0.69228      0.99135  1.0000
  O2          0.22360      0.51355      0.65871  1.0000
  O2          0.69565      0.21551      0.82311  1.0000
  O2          0.52859      0.28836      0.49160  1.0000
  O2          0.77802      0.46846      0.15795  1.0000
  O2          0.78893      0.53245      0.02864  1.0000
  O3          0.46948      0.23369      0.35873  1.0000
  O2          0.74396      0.19420      0.69489  1.0000
  O2          0.21185      0.44896      0.53130  1.0000
  O2          0.53594      0.72797      0.86854  1.0000
  O2          0.25568      0.78738      0.19790  1.0000
  O2          0.54314      0.78601      0.30690  1.0000
  O2          0.26142      0.45988      0.97449  1.0000
  O2          0.20878      0.73085      0.64170  1.0000
  O2          0.46498      0.20241      0.80535  1.0000
  O2          0.73647      0.51761      0.47163  1.0000
  O2          0.79121      0.25168      0.14043  1.0000
  O2          0.23937      0.31484      0.90173  1.0000
  O2          0.68425      0.90624      0.23220  1.0000
  O2          0.08733      0.75244      0.56738  1.0000
  O2          0.75567      0.66274      0.40081  1.0000
  O2          0.31868      0.07235      0.73292  1.0000
  O2          0.91387      0.23104      0.06722  1.0000
  O3          0.30818      0.20687      0.44397  1.0000
  O2          0.91165      0.67567      0.10323  1.0000
  O2          0.76712      0.07679      0.77003  1.0000
  O2          0.68203      0.75264      0.94057  1.0000
  O2          0.08538      0.30482      0.60439  1.0000
  O2          0.24385      0.91875      0.27108  1.0000
  O3          0.60171      0.56567      0.00238  1.0000
  O2          0.45626      0.03207      0.32557  1.0000
  O2          0.96456      0.39280      0.65911  1.0000
  O2          0.41092      0.42779      0.49286  1.0000
  O2          0.56021      0.95554      0.82573  1.0000
  O2          0.03729      0.59163      0.15887  1.0000
  O2          0.55277      0.57636      0.34562  1.0000
  O2          0.03117      0.43797      0.01126  1.0000
  O2          0.40638      0.95031      0.67819  1.0000
  O2          0.44798      0.40304      0.84758  1.0000
  O2          0.96560      0.54479      0.51157  1.0000
  O2          0.59531      0.03048      0.17730  1.0000
  O2          0.59356      0.16783      0.25084  1.0000
  O2          0.82855      0.39901      0.58438  1.0000
  O3          0.60203      0.40176      0.91554  1.0000
  O2          0.41305      0.81592      0.75273  1.0000
  O2          0.17277      0.58299      0.08512  1.0000
  O2          0.41416      0.57185      0.41991  1.0000
  F           0.46347      0.90650      0.25143  1.0000
  F           0.08950      0.52986      0.58562  1.0000
  F           0.47656      0.51537      0.92906  1.0000
  F           0.54354      0.07597      0.75168  1.0000
  F           0.91649      0.45537      0.08542  1.0000
  F           0.50520      0.40626      0.41427  1.0000
