data_cif

_audit_creation_method             'generated by GULP'

_symmetry_space_group_name_H-M     'P 1'
_symmetry_Int_Tables_number        1
_symmetry_cell_setting             triclinic

_cell_length_a                       11.9424
_cell_length_b                       11.9491
_cell_length_c                       29.4731
_cell_angle_alpha                   89.7764
_cell_angle_beta                    90.1581
_cell_angle_gamma                  119.6813

loop_
_atom_site_label
_atom_site_fract_x
_atom_site_fract_y
_atom_site_fract_z
_atom_site_occupancy
  Si          0.69960      0.37570      0.03389  1.0000
  Si          0.62665      0.31637      0.36663  1.0000
  Si          0.68249      0.28441      0.69691  1.0000
  Si          0.30285      0.61131      0.53235  1.0000
  Si          0.38609      0.66609      0.86581  1.0000
  Si          0.33113      0.69894      0.19918  1.0000
  Si          0.38530      0.69683      0.30004  1.0000
  Si          0.33309      0.62194      0.96840  1.0000
  Si          0.30276      0.66482      0.63300  1.0000
  Si          0.62790      0.28544      0.79743  1.0000
  Si          0.68082      0.37097      0.46704  1.0000
  Si          0.71138      0.32215      0.13502  1.0000
  Ge          0.53855      0.43057      0.96482  1.0000
  Si          0.58889      0.10659      0.30197  1.0000
  Si          0.89298      0.45997      0.63302  1.0000
  Si          0.47484      0.57420      0.46711  1.0000
  Si          0.42592      0.87537      0.79906  1.0000
  Si          0.12215      0.52745      0.13347  1.0000
  Si          0.42238      0.52354      0.36542  1.0000
  Si          0.11806      0.57961      0.03229  1.0000
  Si          0.47706      0.87352      0.69767  1.0000
  Si          0.59880      0.45614      0.86557  1.0000
  Si          0.89193      0.40830      0.53149  1.0000
  Si          0.53866      0.11164      0.20031  1.0000
  Si          0.31022      0.38354      0.85352  1.0000
  Si          0.60928      0.90133      0.18588  1.0000
  Si          0.10081      0.68854      0.51773  1.0000
  Si          0.70367      0.59461      0.35180  1.0000
  Si          0.40454      0.08280      0.68305  1.0000
  Si          0.90531      0.30242      0.01856  1.0000
  Si          0.40278      0.29353      0.48175  1.0000
  Si          0.91405      0.59988      0.14946  1.0000
  Si          0.70494      0.08361      0.81321  1.0000
  Si          0.61722      0.70469      0.98524  1.0000
  Si          0.10173      0.38755      0.64758  1.0000
  Si          0.30892      0.89860      0.31561  1.0000
  Si          0.25926      0.33344      0.95618  1.0000
  Si          0.66607      0.90492      0.28640  1.0000
  Si          0.09357      0.73791      0.61841  1.0000
  Si          0.75388      0.65223      0.45245  1.0000
  Si          0.34736      0.07643      0.78368  1.0000
  Si          0.92102      0.25004      0.11825  1.0000
  Si          0.34516      0.24454      0.38102  1.0000
  Si          0.91527      0.65458      0.04866  1.0000
  Si          0.75520      0.07499      0.71268  1.0000
  Si          0.67193      0.73698      0.88187  1.0000
  Si          0.09393      0.33069      0.54699  1.0000
  Si          0.26054      0.90966      0.21497  1.0000
  Ge          0.97068      0.11876      0.96832  1.0000
  Si          0.88471      0.84261      0.30171  1.0000
  Si          0.15641      0.01788      0.63330  1.0000
  Si          0.03353      0.87010      0.46730  1.0000
  Si          0.12957      0.13897      0.80036  1.0000
  Si          0.85863      0.97020      0.13629  1.0000
  Si          0.12800      0.96511      0.36658  1.0000
  Si          0.86056      0.87923      0.03572  1.0000
  Si          0.03662      0.14064      0.69899  1.0000
  Si          0.88496      0.01607      0.86481  1.0000
  Si          0.15554      0.11243      0.53242  1.0000
  Si          0.98043      0.84694      0.20091  1.0000
  O3          0.94907      0.99918      0.00519  1.0000
  O2          0.00478      0.92261      0.33481  1.0000
  O2          0.08025      0.06065      0.66734  1.0000
  O2          0.07496      0.99026      0.50046  1.0000
  O2          0.00789      0.05752      0.83256  1.0000
  O2          0.93744      0.93035      0.17050  1.0000
  O2          0.34630      0.57286      0.33263  1.0000
  O2          0.42675      0.74795      0.66552  1.0000
  O2          0.24367      0.65747      0.99935  1.0000
  O2          0.66851      0.41175      0.82811  1.0000
  O2          0.58985      0.23837      0.16848  1.0000
  O2          0.76618      0.33177      0.49948  1.0000
  O3          0.58194      0.34134      0.00233  1.0000
  O2          0.76601      0.40853      0.66481  1.0000
  O2          0.66559      0.23141      0.33445  1.0000
  O2          0.42560      0.65050      0.49962  1.0000
  O2          0.24847      0.57748      0.16591  1.0000
  O2          0.34992      0.74950      0.83175  1.0000
  O3          0.13129      0.22046      0.97695  1.0000
  O2          0.79267      0.90512      0.30661  1.0000
  O2          0.09237      0.86366      0.63849  1.0000
  O2          0.87943      0.77906      0.47234  1.0000
  O2          0.22058      0.07484      0.80417  1.0000
  O2          0.92226      0.12457      0.13903  1.0000
  O2          0.21869      0.11913      0.36100  1.0000
  O2          0.91242      0.77918      0.02859  1.0000
  O2          0.88226      0.07517      0.69322  1.0000
  O2          0.79257      0.86202      0.85908  1.0000
  O2          0.09268      0.20411      0.52672  1.0000
  O2          0.13444      0.91089      0.19495  1.0000
  O2          0.94091      0.85570      0.25187  1.0000
  O2          0.14189      0.06011      0.58323  1.0000
  O3          0.93505      0.05265      0.91509  1.0000
  O2          0.07778      0.13244      0.74997  1.0000
  O2          0.87206      0.92342      0.08724  1.0000
  O2          0.07585      0.92579      0.41725  1.0000
  O3          0.89279      0.20330      0.97886  1.0000
  O2          0.80247      0.69100      0.31366  1.0000
  O2          0.30836      0.08476      0.64448  1.0000
  O2          0.10276      0.78709      0.47932  1.0000
  O2          0.21273      0.28854      0.81494  1.0000
  O2          0.70685      0.90187      0.14761  1.0000
  O2          0.21023      0.89563      0.35416  1.0000
  O2          0.71121      0.81766      0.02009  1.0000
  O2          0.10409      0.29134      0.68619  1.0000
  O2          0.80384      0.08694      0.85177  1.0000
  O2          0.30681      0.19434      0.52012  1.0000
  O2          0.91210      0.69654      0.18770  1.0000
  O2          0.32987      0.64084      0.24958  1.0000
  O2          0.36001      0.66623      0.58276  1.0000
  O2          0.33321      0.66833      0.91620  1.0000
  O2          0.68409      0.34079      0.74716  1.0000
  O2          0.65219      0.32459      0.08580  1.0000
  O2          0.68259      0.31462      0.41699  1.0000
  O3          0.37343      0.31567      0.97465  1.0000
  O2          0.67619      0.03706      0.30514  1.0000
  O2          0.96131      0.61591      0.63690  1.0000
  O2          0.63083      0.66181      0.47062  1.0000
  O2          0.33849      0.94450      0.80268  1.0000
  O2          0.05391      0.37125      0.13690  1.0000
  O2          0.33520      0.36746      0.36275  1.0000
  O2          0.04929      0.66748      0.02981  1.0000
  O2          0.63337      0.94175      0.69489  1.0000
  O2          0.68166      0.61434      0.86413  1.0000
  O2          0.96136      0.32097      0.52875  1.0000
  O2          0.38238      0.04263      0.19696  1.0000
  O2          0.77116      0.30119      0.01330  1.0000
  O2          0.70239      0.45980      0.34445  1.0000
  O2          0.53836      0.21602      0.67537  1.0000
  O2          0.23444      0.68739      0.51046  1.0000
  O2          0.31409      0.52013      0.84683  1.0000
  O2          0.47539      0.76847      0.17766  1.0000
  O2          0.30957      0.76440      0.32265  1.0000
  O2          0.47889      0.70124      0.98774  1.0000
  O2          0.23486      0.52157      0.65544  1.0000
  O2          0.70156      0.21599      0.82068  1.0000
  O2          0.53790      0.29514      0.48960  1.0000
  O2          0.78280      0.46465      0.15779  1.0000
  O2          0.79009      0.53148      0.02909  1.0000
  O2          0.47073      0.24360      0.36159  1.0000
  O2          0.75462      0.20011      0.69227  1.0000
  O2          0.22016      0.45564      0.52757  1.0000
  O2          0.54008      0.72812      0.86420  1.0000
  O2          0.25897      0.78337      0.19505  1.0000
  O2          0.54114      0.77772      0.30551  1.0000
  O2          0.27120      0.46882      0.97256  1.0000
  O2          0.22071      0.73944      0.63804  1.0000
  O2          0.47178      0.20431      0.80251  1.0000
  O2          0.75544      0.52692      0.47230  1.0000
  O2          0.79372      0.24744      0.13790  1.0000
  O2          0.24249      0.31756      0.90089  1.0000
  O2          0.68393      0.90401      0.23216  1.0000
  O2          0.09527      0.75781      0.56415  1.0000
  O2          0.77326      0.66907      0.39819  1.0000
  O2          0.32925      0.07746      0.72939  1.0000
  O2          0.91846      0.22996      0.06372  1.0000
  O2          0.32824      0.22439      0.43536  1.0000
  O2          0.91541      0.67254      0.10300  1.0000
  O2          0.77533      0.07906      0.76699  1.0000
  O2          0.68767      0.75915      0.93590  1.0000
  O2          0.09701      0.31287      0.60131  1.0000
  O2          0.23998      0.90601      0.26926  1.0000
  O3          0.61072      0.57445      0.99903  1.0000
  O2          0.44784      0.02319      0.32516  1.0000
  O2          0.97580      0.40112      0.65658  1.0000
  O2          0.41635      0.43291      0.49050  1.0000
  O2          0.56705      0.95623      0.82242  1.0000
  O2          0.04099      0.58714      0.15742  1.0000
  O2          0.56399      0.58037      0.34282  1.0000
  O2          0.03386      0.43954      0.00839  1.0000
  O2          0.41993      0.95802      0.67445  1.0000
  O2          0.45136      0.40115      0.84674  1.0000
  O2          0.97622      0.54959      0.50862  1.0000
  O2          0.59574      0.02736      0.17733  1.0000
  O2          0.58981      0.16208      0.25144  1.0000
  O2          0.83943      0.40845      0.58230  1.0000
  O3          0.60876      0.40499      0.91419  1.0000
  O2          0.42405      0.82027      0.74859  1.0000
  O2          0.17607      0.58027      0.08250  1.0000
  O2          0.42200      0.57580      0.41633  1.0000
  F           0.46011      0.90084      0.25117  1.0000
  F           0.10028      0.53775      0.58338  1.0000
  F           0.48362      0.52073      0.92649  1.0000
  F           0.55316      0.08000      0.74897  1.0000
  F           0.91986      0.45124      0.08384  1.0000
  F           0.55345      0.44466      0.41738  1.0000
