data_cif

_audit_creation_method             'generated by GULP'

_symmetry_space_group_name_H-M     'P 1'
_symmetry_Int_Tables_number        1
_symmetry_cell_setting             triclinic

_cell_length_a                       11.9655
_cell_length_b                       11.9460
_cell_length_c                       29.4707
_cell_angle_alpha                   89.5148
_cell_angle_beta                    90.1906
_cell_angle_gamma                  119.7917

loop_
_atom_site_label
_atom_site_fract_x
_atom_site_fract_y
_atom_site_fract_z
_atom_site_occupancy
  Si          0.69960      0.37570      0.03389  1.0000
  Si          0.62439      0.31560      0.36688  1.0000
  Si          0.67540      0.28491      0.69742  1.0000
  Si          0.29915      0.60735      0.53266  1.0000
  Si          0.38651      0.66486      0.86766  1.0000
  Si          0.32958      0.70065      0.19988  1.0000
  Si          0.38365      0.69746      0.30057  1.0000
  Si          0.32670      0.61335      0.96984  1.0000
  Si          0.29915      0.66379      0.63279  1.0000
  Si          0.62706      0.28561      0.79856  1.0000
  Si          0.67800      0.36809      0.46744  1.0000
  Si          0.70896      0.32422      0.13559  1.0000
  Ge          0.53039      0.42243      0.96600  1.0000
  Si          0.58678      0.10666      0.30214  1.0000
  Si          0.88706      0.45662      0.63325  1.0000
  Si          0.47236      0.57199      0.46745  1.0000
  Si          0.42467      0.87444      0.80043  1.0000
  Si          0.11947      0.53002      0.13476  1.0000
  Si          0.42073      0.52322      0.36575  1.0000
  Si          0.11414      0.57902      0.03339  1.0000
  Si          0.46742      0.87083      0.69873  1.0000
  Si          0.59814      0.45475      0.86696  1.0000
  Si          0.88802      0.40354      0.53196  1.0000
  Si          0.53635      0.11233      0.20051  1.0000
  Si          0.31130      0.38343      0.85363  1.0000
  Si          0.60765      0.90258      0.18593  1.0000
  Si          0.09691      0.68394      0.51689  1.0000
  Si          0.70161      0.59438      0.35220  1.0000
  Si          0.39747      0.08235      0.68536  1.0000
  Si          0.90423      0.30007      0.02038  1.0000
  Si          0.40017      0.29098      0.48185  1.0000
  Si          0.91114      0.60175      0.14932  1.0000
  Si          0.70526      0.08334      0.81253  1.0000
  Si          0.60971      0.69500      0.98875  1.0000
  Si          0.09735      0.38741      0.64900  1.0000
  Si          0.30671      0.89849      0.31608  1.0000
  Si          0.25153      0.32486      0.95585  1.0000
  Si          0.66434      0.90560      0.28655  1.0000
  Si          0.08922      0.73379      0.61734  1.0000
  Si          0.75101      0.64993      0.45290  1.0000
  Si          0.34598      0.07608      0.78648  1.0000
  Si          0.91816      0.25210      0.12080  1.0000
  Si          0.34322      0.24366      0.38114  1.0000
  Si          0.91330      0.65662      0.04838  1.0000
  Si          0.74554      0.07353      0.71138  1.0000
  Si          0.67124      0.73502      0.88566  1.0000
  Si          0.08951      0.32622      0.54891  1.0000
  Si          0.25811      0.91042      0.21543  1.0000
  Si          0.96542      0.11712      0.96949  1.0000
  Si          0.88265      0.84321      0.30182  1.0000
  Si          0.15127      0.01288      0.63370  1.0000
  Si          0.03064      0.86765      0.46737  1.0000
  Si          0.12728      0.13536      0.80439  1.0000
  Si          0.85711      0.97239      0.13656  1.0000
  Si          0.12554      0.96445      0.36670  1.0000
  Si          0.85427      0.87900      0.03619  1.0000
  Ge          0.02889      0.13629      0.70090  1.0000
  Si          0.88283      0.01765      0.86847  1.0000
  Si          0.15262      0.10944      0.53275  1.0000
  Si          0.97833      0.84799      0.20100  1.0000
  O2          0.93221      0.99920      0.00298  1.0000
  O2          0.00306      0.92279      0.33472  1.0000
  O3          0.07016      0.04613      0.66764  1.0000
  O2          0.07255      0.98714      0.50081  1.0000
  O2          0.01235      0.05904      0.84032  1.0000
  O2          0.93591      0.93113      0.17012  1.0000
  O2          0.34471      0.57298      0.33316  1.0000
  O2          0.42042      0.74711      0.66610  1.0000
  O2          0.23948      0.65264      0.00008  1.0000
  O2          0.66909      0.41173      0.82952  1.0000
  O2          0.58639      0.23949      0.16867  1.0000
  O2          0.76260      0.32762      0.49981  1.0000
  O3          0.58021      0.33677      0.00260  1.0000
  O2          0.75986      0.40844      0.66478  1.0000
  O2          0.66341      0.23126      0.33463  1.0000
  O2          0.42179      0.64673      0.49994  1.0000
  O2          0.24592      0.57935      0.16684  1.0000
  O2          0.35124      0.74973      0.83397  1.0000
  O2          0.11793      0.20695      0.97359  1.0000
  O2          0.79086      0.90577      0.30668  1.0000
  O2          0.08906      0.85876      0.63750  1.0000
  O2          0.87666      0.77655      0.47279  1.0000
  O2          0.22020      0.07327      0.80815  1.0000
  O2          0.91934      0.12625      0.14149  1.0000
  O2          0.21679      0.11865      0.36103  1.0000
  O2          0.91163      0.78342      0.02866  1.0000
  O3          0.86671      0.07074      0.69027  1.0000
  O2          0.79331      0.86291      0.86443  1.0000
  O2          0.08879      0.20047      0.52823  1.0000
  O2          0.13232      0.91184      0.19542  1.0000
  O2          0.93821      0.85652      0.25187  1.0000
  O2          0.14071      0.05813      0.58358  1.0000
  O2          0.92092      0.06081      0.91966  1.0000
  O3          0.06342      0.11667      0.75596  1.0000
  O2          0.87409      0.93148      0.08677  1.0000
  O2          0.07238      0.92489      0.41735  1.0000
  O2          0.89723      0.19988      0.98176  1.0000
  O2          0.80052      0.69143      0.31404  1.0000
  O2          0.30214      0.08473      0.64681  1.0000
  O2          0.09903      0.78315      0.47846  1.0000
  O2          0.21391      0.28816      0.81507  1.0000
  O2          0.70498      0.90260      0.14761  1.0000
  O2          0.20775      0.89501      0.35457  1.0000
  O2          0.70219      0.80613      0.02443  1.0000
  O3          0.10450      0.29832      0.68891  1.0000
  O2          0.80506      0.08680      0.85039  1.0000
  O2          0.30348      0.19152      0.52012  1.0000
  O2          0.90920      0.69793      0.18758  1.0000
  O2          0.32803      0.64159      0.25021  1.0000
  O2          0.35700      0.66530      0.58267  1.0000
  O2          0.33005      0.66221      0.91774  1.0000
  O2          0.68017      0.34133      0.74788  1.0000
  O2          0.65168      0.32521      0.08588  1.0000
  O2          0.67969      0.31280      0.41728  1.0000
  O3          0.36356      0.30615      0.97568  1.0000
  O2          0.67414      0.03741      0.30531  1.0000
  O2          0.95660      0.61268      0.63615  1.0000
  O2          0.62824      0.65952      0.47118  1.0000
  O2          0.33840      0.94418      0.80508  1.0000
  O2          0.05101      0.37372      0.13893  1.0000
  O2          0.33350      0.36701      0.36302  1.0000
  O2          0.04707      0.66850      0.02983  1.0000
  O2          0.62261      0.93946      0.69540  1.0000
  O2          0.68134      0.61353      0.86684  1.0000
  O2          0.95752      0.31634      0.53000  1.0000
  O2          0.38026      0.04353      0.19740  1.0000
  O2          0.77143      0.30068      0.01381  1.0000
  O2          0.70040      0.45967      0.34483  1.0000
  O2          0.53037      0.21656      0.67700  1.0000
  O2          0.22987      0.68175      0.51002  1.0000
  O2          0.31575      0.52039      0.84731  1.0000
  O2          0.47349      0.76968      0.17806  1.0000
  O2          0.30778      0.76443      0.32326  1.0000
  O2          0.47125      0.69075      0.99013  1.0000
  O2          0.23131      0.52110      0.65548  1.0000
  O2          0.70128      0.21529      0.82058  1.0000
  O2          0.53483      0.29217      0.48986  1.0000
  O2          0.77908      0.46708      0.15795  1.0000
  O2          0.78918      0.53228      0.02855  1.0000
  O2          0.46870      0.24305      0.36174  1.0000
  O2          0.74529      0.19955      0.69147  1.0000
  O2          0.21694      0.45116      0.52968  1.0000
  O2          0.54060      0.72775      0.86748  1.0000
  O2          0.25710      0.78459      0.19560  1.0000
  O2          0.53944      0.77815      0.30586  1.0000
  O2          0.26202      0.45885      0.97326  1.0000
  O2          0.21679      0.73742      0.63703  1.0000
  O2          0.47133      0.20410      0.80465  1.0000
  O2          0.75239      0.52418      0.47272  1.0000
  O2          0.79158      0.25032      0.14033  1.0000
  O2          0.24324      0.31487      0.90067  1.0000
  O2          0.68208      0.90529      0.23227  1.0000
  O2          0.09099      0.75320      0.56303  1.0000
  O2          0.77078      0.66803      0.39865  1.0000
  O2          0.32459      0.07847      0.73225  1.0000
  O2          0.91446      0.23106      0.06659  1.0000
  O2          0.32596      0.22227      0.43546  1.0000
  O2          0.91252      0.67474      0.10267  1.0000
  O2          0.77410      0.08149      0.76559  1.0000
  O2          0.68327      0.75026      0.93984  1.0000
  O2          0.08991      0.30713      0.60354  1.0000
  O2          0.23776      0.90606      0.26975  1.0000
  O3          0.59999      0.56302      0.00202  1.0000
  O2          0.44572      0.02315      0.32544  1.0000
  O2          0.97015      0.39912      0.65758  1.0000
  O2          0.41348      0.43013      0.49070  1.0000
  O2          0.56815      0.95465      0.82185  1.0000
  O2          0.03826      0.59012      0.15808  1.0000
  O2          0.56230      0.58037      0.34315  1.0000
  O2          0.03117      0.43819      0.01020  1.0000
  O2          0.40943      0.95580      0.67660  1.0000
  O2          0.45277      0.40278      0.84677  1.0000
  O2          0.97256      0.54440      0.50839  1.0000
  O2          0.59338      0.02834      0.17739  1.0000
  O2          0.58786      0.16249      0.25157  1.0000
  O2          0.83458      0.40384      0.58260  1.0000
  O3          0.60286      0.39930      0.91532  1.0000
  O2          0.41650      0.81717      0.74992  1.0000
  O2          0.17283      0.58200      0.08361  1.0000
  O2          0.42032      0.57487      0.41667  1.0000
  F           0.45798      0.90106      0.25158  1.0000
  F           0.09541      0.53248      0.58386  1.0000
  F           0.47804      0.51404      0.92836  1.0000
  F           0.54830      0.07926      0.74967  1.0000
  F           0.91714      0.45472      0.08518  1.0000
  F           0.55097      0.44337      0.41772  1.0000
