data_cif

_audit_creation_method             'generated by GULP'

_symmetry_space_group_name_H-M     'P 1'
_symmetry_Int_Tables_number        1
_symmetry_cell_setting             triclinic

_cell_length_a                       11.9654
_cell_length_b                       11.9294
_cell_length_c                       29.4764
_cell_angle_alpha                   89.6030
_cell_angle_beta                    90.2181
_cell_angle_gamma                  119.6705

loop_
_atom_site_label
_atom_site_fract_x
_atom_site_fract_y
_atom_site_fract_z
_atom_site_occupancy
  Si          0.69960      0.37570      0.03389  1.0000
  Si          0.62455      0.31745      0.36706  1.0000
  Si          0.67833      0.28421      0.69702  1.0000
  Si          0.30098      0.61022      0.53342  1.0000
  Si          0.38800      0.66768      0.86884  1.0000
  Si          0.32955      0.70060      0.20050  1.0000
  Si          0.38466      0.69926      0.30116  1.0000
  Si          0.32647      0.61210      0.97020  1.0000
  Si          0.29838      0.66213      0.63401  1.0000
  Si          0.63120      0.28797      0.79810  1.0000
  Si          0.67929      0.37030      0.46751  1.0000
  Si          0.70802      0.32423      0.13567  1.0000
  Ge          0.52982      0.42058      0.96549  1.0000
  Si          0.58678      0.10851      0.30203  1.0000
  Si          0.88940      0.45780      0.63324  1.0000
  Si          0.47422      0.57478      0.46840  1.0000
  Si          0.42927      0.87502      0.80042  1.0000
  Si          0.11888      0.52923      0.13570  1.0000
  Si          0.42167      0.52564      0.36671  1.0000
  Si          0.11448      0.57806      0.03431  1.0000
  Si          0.47210      0.87126      0.69870  1.0000
  Si          0.59991      0.45537      0.86670  1.0000
  Si          0.89023      0.40677      0.53176  1.0000
  Si          0.53546      0.11256      0.20040  1.0000
  Si          0.31426      0.38704      0.85235  1.0000
  Si          0.60689      0.90231      0.18612  1.0000
  Si          0.09927      0.68754      0.51816  1.0000
  Si          0.70217      0.59667      0.35275  1.0000
  Si          0.40012      0.08233      0.68507  1.0000
  Si          0.90447      0.29964      0.02110  1.0000
  Si          0.40212      0.29340      0.48252  1.0000
  Si          0.91048      0.60133      0.14982  1.0000
  Si          0.70798      0.08470      0.81228  1.0000
  Si          0.60944      0.69274      0.98962  1.0000
  Si          0.09722      0.38456      0.64863  1.0000
  Si          0.30736      0.90064      0.31620  1.0000
  Si          0.25115      0.32283      0.95398  1.0000
  Si          0.66467      0.90714      0.28670  1.0000
  Si          0.09045      0.73590      0.61875  1.0000
  Si          0.75251      0.65244      0.45344  1.0000
  Si          0.35132      0.07707      0.78621  1.0000
  Si          0.91729      0.25163      0.12148  1.0000
  Si          0.34381      0.24575      0.38186  1.0000
  Si          0.91367      0.65616      0.04889  1.0000
  Si          0.75037      0.07378      0.71133  1.0000
  Si          0.67123      0.73444      0.88676  1.0000
  Si          0.09185      0.32926      0.54799  1.0000
  Si          0.25781      0.91081      0.21557  1.0000
  Si          0.96523      0.11620      0.96972  1.0000
  Si          0.88324      0.84502      0.30227  1.0000
  Si          0.15302      0.01590      0.63394  1.0000
  Si          0.03213      0.86970      0.46778  1.0000
  Ge          0.12766      0.13702      0.80215  1.0000
  Si          0.85611      0.97176      0.13700  1.0000
  Si          0.12617      0.96649      0.36710  1.0000
  Si          0.85437      0.87855      0.03663  1.0000
  Si          0.02804      0.13480      0.69879  1.0000
  Si          0.88162      0.01621      0.86887  1.0000
  Si          0.15483      0.11178      0.53293  1.0000
  Si          0.97791      0.84789      0.20148  1.0000
  O2          0.93250      0.99892      0.00354  1.0000
  O2          0.00359      0.92513      0.33517  1.0000
  O2          0.07456      0.05735      0.66708  1.0000
  O2          0.07445      0.99020      0.50078  1.0000
  O3          0.00830      0.05240      0.84103  1.0000
  O2          0.93471      0.93054      0.17067  1.0000
  O2          0.34576      0.57559      0.33411  1.0000
  O2          0.42132      0.74545      0.66674  1.0000
  O2          0.23982      0.65045      0.00118  1.0000
  O2          0.67231      0.41403      0.82914  1.0000
  O2          0.58511      0.23938      0.16845  1.0000
  O2          0.76502      0.33061      0.49961  1.0000
  O3          0.58066      0.33591      0.00225  1.0000
  O2          0.76183      0.40784      0.66451  1.0000
  O2          0.66336      0.23337      0.33446  1.0000
  O2          0.42437      0.65013      0.50107  1.0000
  O2          0.24521      0.57839      0.16781  1.0000
  O2          0.35424      0.75196      0.83434  1.0000
  O2          0.11807      0.20518      0.97200  1.0000
  O2          0.79158      0.90799      0.30681  1.0000
  O2          0.08941      0.86151      0.63900  1.0000
  O2          0.87838      0.77878      0.47330  1.0000
  O3          0.22672      0.07167      0.80803  1.0000
  O2          0.91794      0.12556      0.14225  1.0000
  O2          0.21702      0.12085      0.36189  1.0000
  O2          0.91229      0.78320      0.02915  1.0000
  O2          0.87502      0.07307      0.69025  1.0000
  O2          0.79100      0.86182      0.86517  1.0000
  O2          0.09158      0.20325      0.52765  1.0000
  O2          0.13165      0.91158      0.19558  1.0000
  O2          0.93894      0.85717      0.25243  1.0000
  O2          0.14181      0.05855      0.58358  1.0000
  O2          0.91759      0.05913      0.92027  1.0000
  O3          0.05752      0.11506      0.74993  1.0000
  O2          0.87402      0.93149      0.08719  1.0000
  O2          0.07312      0.92529      0.41761  1.0000
  O2          0.89830      0.19987      0.98247  1.0000
  O2          0.80086      0.69344      0.31463  1.0000
  O2          0.30358      0.08404      0.64673  1.0000
  O2          0.10136      0.78640      0.47964  1.0000
  O3          0.22005      0.30014      0.81254  1.0000
  O2          0.70398      0.90182      0.14781  1.0000
  O2          0.20869      0.89747      0.35468  1.0000
  O2          0.70208      0.80438      0.02521  1.0000
  O2          0.09875      0.28762      0.68751  1.0000
  O2          0.80835      0.08956      0.85006  1.0000
  O2          0.30588      0.19378      0.52079  1.0000
  O2          0.90855      0.69765      0.18813  1.0000
  O2          0.32883      0.64247      0.25089  1.0000
  O2          0.35681      0.66426      0.58397  1.0000
  O2          0.33131      0.66616      0.91878  1.0000
  O2          0.68350      0.34213      0.74730  1.0000
  O2          0.65143      0.32553      0.08585  1.0000
  O2          0.68038      0.31446      0.41735  1.0000
  O3          0.36291      0.30411      0.97425  1.0000
  O2          0.67431      0.03928      0.30526  1.0000
  O2          0.95800      0.61394      0.63702  1.0000
  O2          0.62999      0.66218      0.47190  1.0000
  O2          0.34344      0.94478      0.80438  1.0000
  O2          0.05010      0.37286      0.13978  1.0000
  O2          0.33426      0.36945      0.36391  1.0000
  O2          0.04747      0.66778      0.03053  1.0000
  O2          0.62776      0.94010      0.69464  1.0000
  O2          0.68273      0.61391      0.86750  1.0000
  O2          0.95982      0.31952      0.52932  1.0000
  O2          0.37948      0.04367      0.19734  1.0000
  O2          0.77200      0.30065      0.01415  1.0000
  O2          0.70045      0.46159      0.34519  1.0000
  O2          0.53350      0.21560      0.67643  1.0000
  O2          0.23283      0.68647      0.51129  1.0000
  O2          0.31721      0.52360      0.84875  1.0000
  O2          0.47295      0.76918      0.17846  1.0000
  O2          0.30888      0.76678      0.32361  1.0000
  O2          0.47041      0.68738      0.99100  1.0000
  O2          0.23020      0.51859      0.65662  1.0000
  O2          0.70560      0.21769      0.82005  1.0000
  O2          0.53678      0.29434      0.49024  1.0000
  O2          0.77812      0.46708      0.15816  1.0000
  O2          0.78962      0.53223      0.02882  1.0000
  O2          0.46892      0.24492      0.36218  1.0000
  O2          0.74910      0.19910      0.69130  1.0000
  O2          0.21834      0.45440      0.52875  1.0000
  O2          0.54139      0.72901      0.86896  1.0000
  O2          0.25690      0.78454      0.19600  1.0000
  O2          0.54034      0.78003      0.30625  1.0000
  O2          0.26110      0.45718      0.97113  1.0000
  O2          0.21691      0.73721      0.63872  1.0000
  O2          0.47598      0.20619      0.80425  1.0000
  O2          0.75390      0.52640      0.47298  1.0000
  O2          0.79063      0.25022      0.14068  1.0000
  O2          0.24390      0.31146      0.89862  1.0000
  O2          0.68176      0.90572      0.23244  1.0000
  O2          0.09314      0.75657      0.56448  1.0000
  O2          0.77157      0.67036      0.39919  1.0000
  O2          0.32850      0.08032      0.73194  1.0000
  O2          0.91402      0.23030      0.06730  1.0000
  O2          0.32738      0.22470      0.43617  1.0000
  O2          0.91252      0.67454      0.10316  1.0000
  O2          0.77592      0.08029      0.76546  1.0000
  O2          0.68368      0.74853      0.94096  1.0000
  O2          0.09342      0.31041      0.60237  1.0000
  O2          0.23804      0.90757      0.26988  1.0000
  O3          0.59878      0.55999      0.00234  1.0000
  O2          0.44609      0.02551      0.32540  1.0000
  O2          0.97161      0.39868      0.65727  1.0000
  O2          0.41586      0.43288      0.49158  1.0000
  O2          0.57201      0.95609      0.82220  1.0000
  O2          0.03732      0.58931      0.15888  1.0000
  O2          0.56285      0.58278      0.34397  1.0000
  O2          0.03181      0.43721      0.01113  1.0000
  O2          0.41296      0.95571      0.67674  1.0000
  O2          0.45575      0.40588      0.84595  1.0000
  O2          0.97509      0.54843      0.50896  1.0000
  O2          0.59229      0.02800      0.17740  1.0000
  O2          0.58727      0.16355      0.25140  1.0000
  O2          0.83714      0.40647      0.58246  1.0000
  O3          0.60283      0.39778      0.91483  1.0000
  O2          0.42356      0.81791      0.75002  1.0000
  O2          0.17259      0.58114      0.08464  1.0000
  O2          0.42165      0.57746      0.41767  1.0000
  F           0.45804      0.90205      0.25173  1.0000
  F           0.09761      0.53584      0.58418  1.0000
  F           0.47861      0.51339      0.92815  1.0000
  F           0.55211      0.08003      0.74947  1.0000
  F           0.91705      0.45443      0.08574  1.0000
  F           0.55209      0.44538      0.41835  1.0000
