data_cif

_audit_creation_method             'generated by GULP'

_symmetry_space_group_name_H-M     'P 1'
_symmetry_Int_Tables_number        1
_symmetry_cell_setting             triclinic

_cell_length_a                       11.9482
_cell_length_b                       11.9473
_cell_length_c                       29.4658
_cell_angle_alpha                   89.5568
_cell_angle_beta                    90.1577
_cell_angle_gamma                  119.6476

loop_
_atom_site_label
_atom_site_fract_x
_atom_site_fract_y
_atom_site_fract_z
_atom_site_occupancy
  Si          0.69960      0.37570      0.03389  1.0000
  Si          0.62559      0.31787      0.36728  1.0000
  Si          0.67840      0.28452      0.69847  1.0000
  Si          0.30035      0.60979      0.53543  1.0000
  Si          0.38490      0.66634      0.86833  1.0000
  Si          0.32860      0.70107      0.20048  1.0000
  Si          0.38379      0.69979      0.30120  1.0000
  Si          0.32644      0.61422      0.97057  1.0000
  Si          0.29714      0.66489      0.63556  1.0000
  Si          0.62524      0.28666      0.79919  1.0000
  Si          0.67504      0.36471      0.46830  1.0000
  Si          0.70760      0.32383      0.13563  1.0000
  Ge          0.53131      0.42438      0.96615  1.0000
  Si          0.58680      0.10915      0.30224  1.0000
  Si          0.88819      0.46031      0.63426  1.0000
  Si          0.46717      0.56922      0.46896  1.0000
  Si          0.42307      0.87654      0.80194  1.0000
  Si          0.11864      0.52944      0.13538  1.0000
  Si          0.42112      0.52633      0.36696  1.0000
  Si          0.11329      0.57834      0.03402  1.0000
  Si          0.47195      0.87278      0.70048  1.0000
  Si          0.59700      0.45724      0.86702  1.0000
  Si          0.88649      0.40553      0.53299  1.0000
  Si          0.53466      0.11261      0.20058  1.0000
  Si          0.30951      0.38510      0.85417  1.0000
  Si          0.60646      0.90295      0.18602  1.0000
  Si          0.09787      0.68458      0.51851  1.0000
  Si          0.70335      0.59742      0.35421  1.0000
  Si          0.40047      0.08270      0.68598  1.0000
  Si          0.90449      0.29970      0.02043  1.0000
  Si          0.39677      0.28822      0.48192  1.0000
  Si          0.90945      0.60079      0.14946  1.0000
  Si          0.70189      0.08443      0.81512  1.0000
  Si          0.60982      0.69658      0.98884  1.0000
  Si          0.09564      0.38693      0.65077  1.0000
  Si          0.30708      0.90122      0.31657  1.0000
  Si          0.25211      0.32639      0.95645  1.0000
  Si          0.66387      0.90747      0.28663  1.0000
  Si          0.08834      0.73829      0.61860  1.0000
  Si          0.74566      0.64551      0.45539  1.0000
  Si          0.34426      0.07764      0.78662  1.0000
  Si          0.91762      0.25212      0.12100  1.0000
  Si          0.34441      0.24667      0.38073  1.0000
  Si          0.91223      0.65630      0.04859  1.0000
  Si          0.75016      0.07424      0.71455  1.0000
  Si          0.67031      0.73731      0.88568  1.0000
  Si          0.08978      0.33079      0.55026  1.0000
  Si          0.25683      0.91092      0.21594  1.0000
  Si          0.96739      0.11768      0.96955  1.0000
  Si          0.88211      0.84476      0.30201  1.0000
  Si          0.15267      0.01864      0.63610  1.0000
  Ge          0.02812      0.86808      0.46865  1.0000
  Si          0.12588      0.13955      0.80329  1.0000
  Si          0.85606      0.97254      0.13659  1.0000
  Si          0.12667      0.97025      0.36595  1.0000
  Si          0.85433      0.87966      0.03619  1.0000
  Si          0.03105      0.13901      0.70202  1.0000
  Si          0.88232      0.01954      0.86851  1.0000
  Si          0.15142      0.11337      0.53518  1.0000
  Si          0.97615      0.84690      0.20105  1.0000
  O2          0.93266      0.99882      0.00268  1.0000
  O2          0.00501      0.92740      0.33328  1.0000
  O2          0.07631      0.05931      0.67097  1.0000
  O3          0.06435      0.99066      0.50588  1.0000
  O2          0.00731      0.06089      0.83739  1.0000
  O2          0.93451      0.93041      0.17000  1.0000
  O2          0.34578      0.57635      0.33410  1.0000
  O2          0.41974      0.74697      0.66856  1.0000
  O2          0.23892      0.65297      0.00095  1.0000
  O2          0.66721      0.41390      0.82938  1.0000
  O2          0.58462      0.23922      0.16854  1.0000
  O2          0.76107      0.32651      0.50100  1.0000
  O3          0.58061      0.33767      0.00249  1.0000
  O2          0.76098      0.40857      0.66605  1.0000
  O2          0.66443      0.23409      0.33449  1.0000
  O2          0.42169      0.64659      0.50234  1.0000
  O2          0.24490      0.57931      0.16765  1.0000
  O2          0.34843      0.75111      0.83500  1.0000
  O2          0.11948      0.20834      0.97475  1.0000
  O2          0.79017      0.90733      0.30690  1.0000
  O2          0.08690      0.86371      0.63876  1.0000
  O3          0.86553      0.76922      0.47684  1.0000
  O2          0.21719      0.07565      0.80706  1.0000
  O2          0.91837      0.12616      0.14176  1.0000
  O2          0.21964      0.12381      0.35908  1.0000
  O2          0.91098      0.78325      0.02889  1.0000
  O2          0.87709      0.07385      0.69521  1.0000
  O2          0.79276      0.86498      0.86464  1.0000
  O2          0.09100      0.20697      0.52952  1.0000
  O2          0.13036      0.91135      0.19601  1.0000
  O2          0.93309      0.85329      0.25163  1.0000
  O2          0.14309      0.06806      0.58686  1.0000
  O2          0.92849      0.06304      0.91919  1.0000
  O2          0.06885      0.12857      0.75342  1.0000
  O2          0.87393      0.93278      0.08668  1.0000
  O3          0.07127      0.93694      0.41605  1.0000
  O2          0.89778      0.19956      0.98172  1.0000
  O2          0.80234      0.69459      0.31623  1.0000
  O2          0.30378      0.08370      0.64765  1.0000
  O3          0.10418      0.78029      0.47881  1.0000
  O2          0.21163      0.29054      0.81564  1.0000
  O2          0.70379      0.90291      0.14760  1.0000
  O2          0.20850      0.89874      0.35521  1.0000
  O2          0.70231      0.80762      0.02447  1.0000
  O2          0.09792      0.29031      0.68950  1.0000
  O2          0.80105      0.08794      0.85341  1.0000
  O2          0.30103      0.18816      0.52009  1.0000
  O2          0.90755      0.69716      0.18762  1.0000
  O2          0.32766      0.64307      0.25096  1.0000
  O2          0.35660      0.66495      0.58581  1.0000
  O2          0.32943      0.66353      0.91860  1.0000
  O2          0.68042      0.34100      0.74866  1.0000
  O2          0.65100      0.32510      0.08581  1.0000
  O2          0.67914      0.31210      0.41780  1.0000
  O3          0.36481      0.30798      0.97587  1.0000
  O2          0.67406      0.03953      0.30527  1.0000
  O2          0.95622      0.61632      0.63747  1.0000
  O2          0.62214      0.65501      0.47252  1.0000
  O2          0.33570      0.94568      0.80573  1.0000
  O2          0.05022      0.37329      0.13942  1.0000
  O2          0.33516      0.37063      0.36325  1.0000
  O2          0.04629      0.66796      0.03036  1.0000
  O2          0.62814      0.94083      0.69716  1.0000
  O2          0.68015      0.61568      0.86680  1.0000
  O2          0.95718      0.31945      0.53138  1.0000
  O2          0.37848      0.04373      0.19762  1.0000
  O2          0.77160      0.30054      0.01386  1.0000
  O2          0.70176      0.46264      0.34607  1.0000
  O2          0.53393      0.21563      0.67746  1.0000
  O2          0.23264      0.68529      0.51296  1.0000
  O2          0.31387      0.52201      0.84807  1.0000
  O2          0.47241      0.76997      0.17851  1.0000
  O2          0.30811      0.76720      0.32396  1.0000
  O2          0.47097      0.69162      0.99083  1.0000
  O2          0.22773      0.52179      0.65838  1.0000
  O2          0.69895      0.21704      0.82232  1.0000
  O2          0.53105      0.28804      0.48994  1.0000
  O2          0.77743      0.46643      0.15808  1.0000
  O2          0.78875      0.53207      0.02859  1.0000
  O2          0.47028      0.24610      0.36161  1.0000
  O2          0.74972      0.19938      0.69383  1.0000
  O2          0.21722      0.45470      0.53121  1.0000
  O2          0.53920      0.72953      0.86756  1.0000
  O2          0.25586      0.78491      0.19625  1.0000
  O2          0.53952      0.78036      0.30615  1.0000
  O2          0.26217      0.45998      0.97402  1.0000
  O2          0.21574      0.74056      0.63849  1.0000
  O2          0.46923      0.20551      0.80496  1.0000
  O2          0.74792      0.51969      0.47456  1.0000
  O2          0.79061      0.25014      0.14041  1.0000
  O2          0.24212      0.31632      0.90126  1.0000
  O2          0.68136      0.90643      0.23234  1.0000
  O2          0.08889      0.75691      0.56402  1.0000
  O2          0.77266      0.66783      0.40114  1.0000
  O2          0.32583      0.07853      0.73236  1.0000
  O2          0.91464      0.23113      0.06677  1.0000
  O2          0.32442      0.22111      0.43500  1.0000
  O2          0.91067      0.67390      0.10289  1.0000
  O2          0.77119      0.07902      0.76879  1.0000
  O2          0.68241      0.75256      0.93986  1.0000
  O2          0.09117      0.31250      0.60464  1.0000
  O2          0.23729      0.90791      0.27030  1.0000
  O3          0.60157      0.56512      0.00194  1.0000
  O2          0.44609      0.02575      0.32578  1.0000
  O2          0.97002      0.40151      0.65882  1.0000
  O2          0.40796      0.42625      0.49115  1.0000
  O2          0.56444      0.95721      0.82485  1.0000
  O2          0.03673      0.58929      0.15848  1.0000
  O2          0.56454      0.58566      0.34564  1.0000
  O2          0.03115      0.43790      0.01054  1.0000
  O2          0.41455      0.95723      0.67744  1.0000
  O2          0.45111      0.40451      0.84717  1.0000
  O2          0.97213      0.54608      0.50956  1.0000
  O2          0.59153      0.02830      0.17745  1.0000
  O2          0.58668      0.16365      0.25155  1.0000
  O2          0.83423      0.40754      0.58372  1.0000
  O3          0.60327      0.40194      0.91527  1.0000
  O2          0.42010      0.82030      0.75163  1.0000
  O2          0.17203      0.58109      0.08424  1.0000
  O2          0.41587      0.57404      0.41816  1.0000
  F           0.45708      0.90243      0.25197  1.0000
  F           0.09480      0.53814      0.58507  1.0000
  F           0.47760      0.51593      0.92873  1.0000
  F           0.54903      0.07988      0.75122  1.0000
  F           0.91643      0.45440      0.08546  1.0000
  F           0.54982      0.44308      0.41862  1.0000
