data_cif

_audit_creation_method             'generated by GULP'

_symmetry_space_group_name_H-M     'P 1'
_symmetry_Int_Tables_number        1
_symmetry_cell_setting             triclinic

_cell_length_a                       11.9530
_cell_length_b                       11.9872
_cell_length_c                       29.3057
_cell_angle_alpha                   90.5184
_cell_angle_beta                    89.8607
_cell_angle_gamma                  119.9836

loop_
_atom_site_label
_atom_site_fract_x
_atom_site_fract_y
_atom_site_fract_z
_atom_site_occupancy
  Si          0.69960      0.37570      0.03389  1.0000
  Si          0.63122      0.32305      0.36778  1.0000
  Si          0.68873      0.29668      0.70095  1.0000
  Si          0.31061      0.62062      0.53763  1.0000
  Si          0.37489      0.68253      0.86841  1.0000
  Si          0.31839      0.68364      0.20139  1.0000
  Si          0.38927      0.69792      0.30382  1.0000
  Si          0.31810      0.61394      0.97073  1.0000
  Si          0.30611      0.67491      0.63877  1.0000
  Si          0.64098      0.30528      0.80201  1.0000
  Si          0.68956      0.37700      0.46896  1.0000
  Si          0.69348      0.32350      0.13493  1.0000
  Si          0.52743      0.40887      0.96693  1.0000
  Si          0.59601      0.11459      0.30077  1.0000
  Si          0.89745      0.46875      0.63579  1.0000
  Si          0.48321      0.58194      0.47247  1.0000
  Si          0.42839      0.90104      0.80613  1.0000
  Si          0.09798      0.51538      0.13899  1.0000
  Si          0.42893      0.52964      0.37016  1.0000
  Si          0.10787      0.57239      0.03727  1.0000
  Si          0.47722      0.88761      0.70440  1.0000
  Si          0.59078      0.47045      0.86388  1.0000
  Si          0.90130      0.41638      0.53368  1.0000
  Si          0.53150      0.11206      0.19754  1.0000
  Ge          0.31683      0.41326      0.85931  1.0000
  Ge          0.58775      0.89524      0.19294  1.0000
  Si          0.10992      0.69643      0.52117  1.0000
  Si          0.70893      0.60096      0.35464  1.0000
  Si          0.40848      0.09783      0.68889  1.0000
  Si          0.89739      0.29254      0.02166  1.0000
  Si          0.41159      0.30099      0.48563  1.0000
  Si          0.89671      0.59842      0.15181  1.0000
  Si          0.71262      0.10272      0.81869  1.0000
  Si          0.60101      0.69365      0.98470  1.0000
  Si          0.10535      0.39565      0.65216  1.0000
  Si          0.31153      0.90212      0.31776  1.0000
  Si          0.24280      0.32651      0.95509  1.0000
  Si          0.67678      0.91123      0.28873  1.0000
  Si          0.09784      0.74778      0.62219  1.0000
  Si          0.76203      0.65855      0.45594  1.0000
  Si          0.35444      0.10403      0.79007  1.0000
  Si          0.89461      0.23768      0.12303  1.0000
  Si          0.35152      0.25177      0.38440  1.0000
  Si          0.90930      0.65461      0.05064  1.0000
  Si          0.75790      0.08722      0.71743  1.0000
  Si          0.66165      0.75037      0.88262  1.0000
  Si          0.10235      0.33981      0.55057  1.0000
  Si          0.25138      0.90262      0.21581  1.0000
  Si          0.96810      0.11302      0.97224  1.0000
  Si          0.88940      0.84873      0.30547  1.0000
  Si          0.15995      0.02781      0.63778  1.0000
  Si          0.04261      0.87651      0.47135  1.0000
  Si          0.13215      0.16228      0.80592  1.0000
  Si          0.83713      0.95851      0.13951  1.0000
  Si          0.13462      0.97198      0.37029  1.0000
  Si          0.84763      0.87150      0.03759  1.0000
  Si          0.03748      0.14887      0.70371  1.0000
  Si          0.88691      0.02905      0.86930  1.0000
  Si          0.16409      0.12161      0.53644  1.0000
  Si          0.97145      0.84805      0.20260  1.0000
  O2          0.92378      0.99148      0.00452  1.0000
  O2          0.01304      0.92693      0.33755  1.0000
  O2          0.07997      0.06926      0.67061  1.0000
  O2          0.08399      0.99838      0.50407  1.0000
  O2          0.00876      0.06808      0.83722  1.0000
  O2          0.93199      0.93053      0.17096  1.0000
  O2          0.35202      0.57906      0.33793  1.0000
  O2          0.42673      0.75944      0.67271  1.0000
  O2          0.23502      0.64969      0.00543  1.0000
  O2          0.68163      0.43113      0.83429  1.0000
  O2          0.56917      0.24003      0.16766  1.0000
  O2          0.77628      0.33896      0.50055  1.0000
  O2          0.57918      0.33625      0.99954  1.0000
  O2          0.77022      0.41766      0.66737  1.0000
  O2          0.66940      0.23989      0.33361  1.0000
  O2          0.43571      0.65903      0.50554  1.0000
  O2          0.21821      0.55560      0.17349  1.0000
  O2          0.34778      0.78238      0.84066  1.0000
  O2          0.12136      0.20625      0.98046  1.0000
  O2          0.79794      0.91058      0.31398  1.0000
  O2          0.09592      0.87344      0.64211  1.0000
  O2          0.88830      0.78460      0.47642  1.0000
  O2          0.23262      0.10838      0.81148  1.0000
  O2          0.89158      0.11305      0.14449  1.0000
  O2          0.22365      0.12563      0.36455  1.0000
  O2          0.91189      0.78160      0.03063  1.0000
  O2          0.88298      0.08463      0.69712  1.0000
  O2          0.78770      0.87570      0.86300  1.0000
  O2          0.10261      0.21359      0.53007  1.0000
  O2          0.12506      0.90247      0.19638  1.0000
  O2          0.94136      0.86521      0.25448  1.0000
  O2          0.14898      0.06992      0.58718  1.0000
  O2          0.93393      0.05972      0.92118  1.0000
  O2          0.07661      0.13676      0.75434  1.0000
  O2          0.86049      0.92410      0.08822  1.0000
  O2          0.08270      0.93078      0.42082  1.0000
  O2          0.89600      0.19390      0.98307  1.0000
  O2          0.80760      0.69663      0.31625  1.0000
  O2          0.31141      0.09628      0.64989  1.0000
  O2          0.11291      0.79502      0.48266  1.0000
  O3          0.20207      0.30886      0.81735  1.0000
  O3          0.69058      0.88294      0.15090  1.0000
  O2          0.21957      0.90505      0.35755  1.0000
  O2          0.69542      0.78625      0.02455  1.0000
  O2          0.10565      0.29989      0.69072  1.0000
  O2          0.80984      0.10396      0.85751  1.0000
  O2          0.31615      0.20274      0.52415  1.0000
  O2          0.89632      0.69594      0.19052  1.0000
  O2          0.33041      0.64091      0.25361  1.0000
  O2          0.36635      0.67715      0.58844  1.0000
  O2          0.31950      0.67175      0.92071  1.0000
  O2          0.69456      0.35904      0.75112  1.0000
  O2          0.63768      0.32060      0.08397  1.0000
  O2          0.68938      0.32141      0.41786  1.0000
  O2          0.37176      0.32190      0.97039  1.0000
  O2          0.68241      0.04530      0.30419  1.0000
  O2          0.96465      0.62463      0.63940  1.0000
  O2          0.63977      0.66879      0.47464  1.0000
  O2          0.34293      0.97123      0.80808  1.0000
  O2          0.02813      0.36018      0.14098  1.0000
  O2          0.34126      0.37364      0.36605  1.0000
  O2          0.04080      0.66107      0.03276  1.0000
  O2          0.63333      0.95454      0.69996  1.0000
  O2          0.67134      0.62766      0.86484  1.0000
  O2          0.97067      0.32940      0.53088  1.0000
  O2          0.37383      0.03453      0.19831  1.0000
  O2          0.76753      0.29922      0.01222  1.0000
  O2          0.70572      0.46586      0.34564  1.0000
  O2          0.54419      0.22793      0.67927  1.0000
  O2          0.24434      0.69619      0.51419  1.0000
  O3          0.29942      0.54714      0.84333  1.0000
  O3          0.45363      0.74348      0.17652  1.0000
  O2          0.31633      0.77121      0.32396  1.0000
  O2          0.46429      0.68826      0.99078  1.0000
  O2          0.23799      0.53113      0.66009  1.0000
  O2          0.71689      0.23905      0.82496  1.0000
  O2          0.54649      0.30144      0.49161  1.0000
  O2          0.76019      0.46653      0.15779  1.0000
  O2          0.78137      0.53169      0.02993  1.0000
  O2          0.47453      0.24705      0.36366  1.0000
  O2          0.76138      0.21320      0.69653  1.0000
  O2          0.23018      0.46474      0.53172  1.0000
  O2          0.53201      0.74587      0.86547  1.0000
  O2          0.25494      0.77708      0.19841  1.0000
  O2          0.54443      0.78697      0.30680  1.0000
  O2          0.25130      0.45924      0.97343  1.0000
  O2          0.22282      0.74783      0.64271  1.0000
  O2          0.48545      0.22668      0.80856  1.0000
  O2          0.76230      0.53261      0.47456  1.0000
  O2          0.77249      0.24723      0.14144  1.0000
  O3          0.21425      0.30254      0.90226  1.0000
  O3          0.69989      0.90521      0.23592  1.0000
  O2          0.10248      0.76679      0.56753  1.0000
  O2          0.78061      0.67515      0.40133  1.0000
  O2          0.33733      0.10255      0.73523  1.0000
  O2          0.89393      0.21967      0.06826  1.0000
  O2          0.33510      0.23219      0.43891  1.0000
  O2          0.90673      0.67412      0.10519  1.0000
  O2          0.77953      0.09214      0.77201  1.0000
  O2          0.67061      0.76100      0.93762  1.0000
  O2          0.10255      0.32239      0.60510  1.0000
  O2          0.24235      0.90261      0.27080  1.0000
  O2          0.57904      0.55086      0.98858  1.0000
  O2          0.45412      0.02394      0.32209  1.0000
  O2          0.98056      0.41178      0.65952  1.0000
  O2          0.42788      0.44102      0.49505  1.0000
  O2          0.57121      0.98159      0.82879  1.0000
  O2          0.01811      0.57826      0.16186  1.0000
  O2          0.56981      0.58910      0.34633  1.0000
  O2          0.02616      0.43045      0.01413  1.0000
  O2          0.41805      0.96936      0.68119  1.0000
  O3          0.45580      0.41255      0.83814  1.0000
  O2          0.98501      0.55740      0.51069  1.0000
  O3          0.58921      0.03443      0.17198  1.0000
  O2          0.58954      0.15956      0.24937  1.0000
  O2          0.84605      0.41614      0.58437  1.0000
  O2          0.57963      0.41381      0.91559  1.0000
  O2          0.42650      0.83992      0.75600  1.0000
  O2          0.15776      0.57244      0.08886  1.0000
  O2          0.42847      0.58148      0.42152  1.0000
  F           0.48559      0.89992      0.24152  1.0000
  F           0.10739      0.54746      0.58511  1.0000
  F           0.42332      0.51632      0.90803  1.0000
  F           0.56244      0.10098      0.75315  1.0000
  F           0.89634      0.44772      0.08599  1.0000
  F           0.55878      0.45018      0.41854  1.0000
