data_cif

_audit_creation_method             'generated by GULP'

_symmetry_space_group_name_H-M     'P 1'
_symmetry_Int_Tables_number        1
_symmetry_cell_setting             triclinic

_cell_length_a                       11.9930
_cell_length_b                       11.9428
_cell_length_c                       29.4215
_cell_angle_alpha                   90.5494
_cell_angle_beta                    90.2667
_cell_angle_gamma                  120.1408

loop_
_atom_site_label
_atom_site_fract_x
_atom_site_fract_y
_atom_site_fract_z
_atom_site_occupancy
  Si          0.69960      0.37570      0.03389  1.0000
  Si          0.62005      0.33096      0.36719  1.0000
  Si          0.68627      0.29823      0.70144  1.0000
  Si          0.30836      0.62797      0.53286  1.0000
  Si          0.37453      0.68090      0.86615  1.0000
  Si          0.32355      0.70612      0.20077  1.0000
  Si          0.38067      0.70960      0.30144  1.0000
  Si          0.31696      0.61680      0.96820  1.0000
  Si          0.30431      0.67608      0.63614  1.0000
  Si          0.63893      0.30350      0.80206  1.0000
  Si          0.67433      0.38869      0.46776  1.0000
  Si          0.70055      0.32403      0.13471  1.0000
  Si          0.52540      0.40804      0.96741  1.0000
  Si          0.58428      0.11996      0.30176  1.0000
  Si          0.89192      0.46879      0.63597  1.0000
  Si          0.47985      0.59952      0.46792  1.0000
  Si          0.42735      0.89873      0.80347  1.0000
  Si          0.11165      0.53138      0.13575  1.0000
  Si          0.42076      0.54028      0.36654  1.0000
  Si          0.10933      0.57984      0.03391  1.0000
  Si          0.47559      0.89047      0.70220  1.0000
  Si          0.58812      0.46633      0.86472  1.0000
  Si          0.88252      0.41307      0.53190  1.0000
  Si          0.52976      0.11635      0.19992  1.0000
  Ge          0.31521      0.40967      0.85873  1.0000
  Si          0.60062      0.90662      0.18618  1.0000
  Si          0.09790      0.69860      0.51825  1.0000
  Si          0.69932      0.60927      0.35225  1.0000
  Si          0.40536      0.10064      0.68783  1.0000
  Si          0.89976      0.29811      0.01943  1.0000
  Si          0.39844      0.31552      0.48403  1.0000
  Si          0.90324      0.60378      0.15013  1.0000
  Si          0.71151      0.10049      0.81713  1.0000
  Si          0.59820      0.69460      0.98347  1.0000
  Si          0.10254      0.39373      0.65349  1.0000
  Si          0.30331      0.91119      0.31600  1.0000
  Si          0.24198      0.32745      0.95431  1.0000
  Si          0.66231      0.91834      0.28692  1.0000
  Si          0.09240      0.75101      0.62066  1.0000
  Si          0.75581      0.67226      0.45274  1.0000
  Si          0.35239      0.10204      0.78886  1.0000
  Si          0.90901      0.25116      0.12028  1.0000
  Si          0.34066      0.26107      0.38270  1.0000
  Si          0.90890      0.65713      0.04928  1.0000
  Si          0.75670      0.08844      0.71618  1.0000
  Si          0.65979      0.74844      0.88197  1.0000
  Ge          0.09335      0.36066      0.55293  1.0000
  Si          0.25154      0.91540      0.21504  1.0000
  Si          0.96702      0.11564      0.97078  1.0000
  Si          0.87994      0.85602      0.30240  1.0000
  Si          0.15884      0.03518      0.63577  1.0000
  Si          0.03715      0.88700      0.46940  1.0000
  Si          0.12945      0.15728      0.80522  1.0000
  Si          0.84714      0.97136      0.13640  1.0000
  Si          0.12450      0.97889      0.36800  1.0000
  Si          0.84554      0.87344      0.03561  1.0000
  Si          0.03521      0.14952      0.70398  1.0000
  Si          0.88600      0.02722      0.86826  1.0000
  Si          0.15296      0.13412      0.53580  1.0000
  Si          0.97186      0.85338      0.20147  1.0000
  O2          0.92152      0.99406      0.00318  1.0000
  O2          0.99980      0.93502      0.33637  1.0000
  O2          0.07995      0.07502      0.66948  1.0000
  O2          0.08336      0.00719      0.50302  1.0000
  O2          0.00750      0.06413      0.83690  1.0000
  O2          0.92760      0.93232      0.16963  1.0000
  O2          0.34271      0.58746      0.33410  1.0000
  O2          0.42522      0.76357      0.66947  1.0000
  O2          0.23431      0.65574      0.00147  1.0000
  O2          0.67920      0.42765      0.83552  1.0000
  O2          0.57815      0.24087      0.16724  1.0000
  O2          0.75307      0.34573      0.50114  1.0000
  O2          0.57650      0.33578      0.00060  1.0000
  O2          0.76819      0.42049      0.66844  1.0000
  O2          0.65945      0.24640      0.33445  1.0000
  O2          0.43466      0.67986      0.50062  1.0000
  O2          0.23776      0.58089      0.16809  1.0000
  O2          0.34699      0.77895      0.83740  1.0000
  O2          0.12003      0.20830      0.97967  1.0000
  O2          0.78966      0.92035      0.30687  1.0000
  O2          0.09609      0.87913      0.64040  1.0000
  O2          0.88262      0.79793      0.47355  1.0000
  O2          0.23049      0.10410      0.81055  1.0000
  O2          0.91054      0.12639      0.14078  1.0000
  O2          0.21348      0.13352      0.36256  1.0000
  O2          0.90908      0.78331      0.02919  1.0000
  O2          0.88076      0.08505      0.69624  1.0000
  O2          0.78648      0.87295      0.86252  1.0000
  O3          0.08504      0.21524      0.53106  1.0000
  O2          0.12532      0.91578      0.19495  1.0000
  O2          0.93603      0.86899      0.25234  1.0000
  O2          0.14826      0.07589      0.58550  1.0000
  O2          0.93299      0.06076      0.92001  1.0000
  O2          0.07101      0.12872      0.75410  1.0000
  O2          0.85916      0.92645      0.08630  1.0000
  O2          0.07825      0.93933      0.41895  1.0000
  O2          0.89578      0.19747      0.98104  1.0000
  O2          0.79598      0.70400      0.31341  1.0000
  O2          0.30980      0.10200      0.64899  1.0000
  O2          0.10029      0.79792      0.48078  1.0000
  O3          0.20025      0.30474      0.81673  1.0000
  O2          0.69584      0.90275      0.14780  1.0000
  O2          0.20625      0.91011      0.35435  1.0000
  O2          0.69319      0.78890      0.02321  1.0000
  O2          0.10144      0.30371      0.69511  1.0000
  O2          0.80926      0.10185      0.85570  1.0000
  O2          0.30533      0.22290      0.52325  1.0000
  O2          0.90159      0.70089      0.18878  1.0000
  O2          0.32336      0.64983      0.25099  1.0000
  O2          0.35736      0.67667      0.58535  1.0000
  O2          0.31954      0.67286      0.91798  1.0000
  O2          0.69211      0.35979      0.75167  1.0000
  O2          0.64248      0.32042      0.08406  1.0000
  O2          0.67751      0.33157      0.41747  1.0000
  O2          0.36979      0.32214      0.97048  1.0000
  O2          0.67237      0.05198      0.30483  1.0000
  O2          0.96268      0.62591      0.63838  1.0000
  O2          0.63597      0.68703      0.47025  1.0000
  O2          0.34136      0.96803      0.80559  1.0000
  O2          0.04227      0.37473      0.13834  1.0000
  O2          0.33242      0.38341      0.36333  1.0000
  O2          0.04022      0.66688      0.03034  1.0000
  O2          0.63102      0.95698      0.69768  1.0000
  O2          0.66862      0.62424      0.86525  1.0000
  O3          0.94382      0.32283      0.52702  1.0000
  O2          0.37355      0.04744      0.19653  1.0000
  O2          0.76709      0.30009      0.01133  1.0000
  O2          0.69517      0.47305      0.34401  1.0000
  O2          0.54238      0.23042      0.67925  1.0000
  O2          0.23191      0.69866      0.51346  1.0000
  O3          0.29891      0.54372      0.84174  1.0000
  O2          0.46584      0.77252      0.17814  1.0000
  O2          0.30507      0.77791      0.32329  1.0000
  O2          0.46272      0.69077      0.98891  1.0000
  O2          0.23609      0.53297      0.65795  1.0000
  O2          0.71553      0.23697      0.82412  1.0000
  O2          0.53201      0.31410      0.48972  1.0000
  O2          0.76941      0.46902      0.15678  1.0000
  O2          0.78009      0.53240      0.02945  1.0000
  O2          0.46371      0.25597      0.36316  1.0000
  O2          0.76026      0.21614      0.69649  1.0000
  O3          0.23590      0.47483      0.52517  1.0000
  O2          0.53132      0.74439      0.86393  1.0000
  O2          0.24883      0.78743      0.19536  1.0000
  O2          0.53679      0.79297      0.30640  1.0000
  O2          0.25031      0.46147      0.97168  1.0000
  O2          0.21432      0.74110      0.63787  1.0000
  O2          0.48373      0.22394      0.80813  1.0000
  O2          0.75326      0.54573      0.47286  1.0000
  O2          0.78358      0.25135      0.13964  1.0000
  O3          0.21299      0.30059      0.90171  1.0000
  O2          0.67732      0.91345      0.23248  1.0000
  O2          0.09034      0.76016      0.56634  1.0000
  O2          0.77445      0.68659      0.39828  1.0000
  O2          0.33577      0.10434      0.73429  1.0000
  O2          0.90436      0.22894      0.06591  1.0000
  O2          0.32297      0.24617      0.43702  1.0000
  O2          0.90867      0.67765      0.10361  1.0000
  O2          0.77751      0.09076      0.77059  1.0000
  O2          0.66837      0.76118      0.93677  1.0000
  O3          0.09867      0.31290      0.60973  1.0000
  O2          0.23305      0.91468      0.26936  1.0000
  O2          0.57681      0.55168      0.98828  1.0000
  O2          0.44354      0.03642      0.32455  1.0000
  O2          0.98011      0.41606      0.65825  1.0000
  O2          0.42338      0.46001      0.49166  1.0000
  O2          0.57001      0.97869      0.82654  1.0000
  O2          0.02776      0.58865      0.15887  1.0000
  O2          0.56118      0.59805      0.34324  1.0000
  O2          0.02634      0.43715      0.01060  1.0000
  O2          0.41347      0.97077      0.67980  1.0000
  O3          0.45311      0.40670      0.83877  1.0000
  O2          0.97540      0.55649      0.51039  1.0000
  O2          0.58738      0.03234      0.17676  1.0000
  O2          0.58384      0.17175      0.25080  1.0000
  O2          0.84109      0.41838      0.58465  1.0000
  O2          0.57717      0.41106      0.91647  1.0000
  O2          0.42530      0.83886      0.75321  1.0000
  O2          0.16380      0.58324      0.08486  1.0000
  O2          0.42302      0.59641      0.41727  1.0000
  F           0.45280      0.90926      0.24991  1.0000
  F           0.09682      0.51026      0.57960  1.0000
  F           0.42210      0.51537      0.90732  1.0000
  F           0.56071      0.10036      0.75174  1.0000
  F           0.90218      0.45209      0.08347  1.0000
  F           0.55323      0.46514      0.41626  1.0000
