data_cif

_audit_creation_method             'generated by GULP'

_symmetry_space_group_name_H-M     'P 1'
_symmetry_Int_Tables_number        1
_symmetry_cell_setting             triclinic

_cell_length_a                       11.9572
_cell_length_b                       11.9998
_cell_length_c                       29.3862
_cell_angle_alpha                   90.1932
_cell_angle_beta                    90.3824
_cell_angle_gamma                  120.0782

loop_
_atom_site_label
_atom_site_fract_x
_atom_site_fract_y
_atom_site_fract_z
_atom_site_occupancy
  Si          0.69960      0.37570      0.03389  1.0000
  Si          0.62425      0.33249      0.36779  1.0000
  Si          0.68838      0.30825      0.70003  1.0000
  Si          0.30455      0.63046      0.53547  1.0000
  Si          0.37964      0.69023      0.86554  1.0000
  Si          0.32516      0.70920      0.20228  1.0000
  Si          0.38285      0.71128      0.30321  1.0000
  Si          0.31784      0.61970      0.96675  1.0000
  Si          0.30451      0.68563      0.63626  1.0000
  Si          0.64119      0.31316      0.80096  1.0000
  Si          0.68252      0.38815      0.46873  1.0000
  Si          0.70063      0.32813      0.13540  1.0000
  Si          0.52951      0.41311      0.96651  1.0000
  Si          0.58712      0.12198      0.30265  1.0000
  Si          0.89636      0.48032      0.63520  1.0000
  Si          0.47563      0.59184      0.47042  1.0000
  Si          0.42930      0.90814      0.80280  1.0000
  Si          0.11341      0.53504      0.13692  1.0000
  Si          0.41998      0.53859      0.36839  1.0000
  Si          0.11261      0.57845      0.03456  1.0000
  Si          0.47729      0.89863      0.70129  1.0000
  Si          0.59481      0.47766      0.86399  1.0000
  Si          0.89529      0.42694      0.53338  1.0000
  Si          0.53121      0.11932      0.20064  1.0000
  Ge          0.32099      0.42024      0.85694  1.0000
  Si          0.60207      0.91040      0.18694  1.0000
  Si          0.10364      0.70712      0.51991  1.0000
  Si          0.70001      0.60948      0.35402  1.0000
  Si          0.40801      0.10897      0.68683  1.0000
  Si          0.90118      0.29811      0.02138  1.0000
  Si          0.40442      0.31156      0.48407  1.0000
  Si          0.90314      0.60716      0.14957  1.0000
  Si          0.71300      0.11003      0.81579  1.0000
  Si          0.59926      0.69658      0.98406  1.0000
  Si          0.10443      0.40702      0.65066  1.0000
  Si          0.30629      0.91302      0.31750  1.0000
  Si          0.24632      0.33415      0.95219  1.0000
  Si          0.66402      0.92045      0.28774  1.0000
  Si          0.09636      0.75906      0.62077  1.0000
  Si          0.75446      0.66891      0.45484  1.0000
  Si          0.35478      0.11100      0.78787  1.0000
  Si          0.91023      0.25583      0.12293  1.0000
  Si          0.34357      0.26082      0.38302  1.0000
  Si          0.91071      0.65474      0.04815  1.0000
  Si          0.75830      0.09851      0.71495  1.0000
  Si          0.66643      0.75794      0.88304  1.0000
  Si          0.09642      0.34965      0.54938  1.0000
  Si          0.25320      0.91747      0.21651  1.0000
  Si          0.97233      0.12299      0.96968  1.0000
  Si          0.88072      0.85598      0.30346  1.0000
  Si          0.15844      0.03892      0.63589  1.0000
  Si          0.03554      0.88708      0.46966  1.0000
  Si          0.13330      0.16962      0.80356  1.0000
  Si          0.85143      0.97910      0.13855  1.0000
  Si          0.12633      0.98033      0.36858  1.0000
  Ge          0.85032      0.87653      0.03591  1.0000
  Si          0.03777      0.16000      0.70162  1.0000
  Si          0.88931      0.03785      0.86694  1.0000
  Si          0.15777      0.13167      0.53478  1.0000
  Si          0.97236      0.85429      0.20234  1.0000
  O3          0.93367      0.99945      0.99916  1.0000
  O2          0.00271      0.93681      0.33631  1.0000
  O2          0.07937      0.08062      0.66859  1.0000
  O2          0.07757      0.00925      0.50214  1.0000
  O2          0.00974      0.07537      0.83463  1.0000
  O2          0.92953      0.93731      0.17221  1.0000
  O2          0.34403      0.58905      0.33600  1.0000
  O2          0.42725      0.77134      0.66951  1.0000
  O2          0.23580      0.65551      0.00144  1.0000
  O2          0.68374      0.43735      0.83423  1.0000
  O2          0.57799      0.24392      0.16808  1.0000
  O2          0.76872      0.34980      0.50076  1.0000
  O2          0.57817      0.33787      0.99971  1.0000
  O2          0.77053      0.43043      0.66714  1.0000
  O2          0.66331      0.24849      0.33491  1.0000
  O2          0.42804      0.66878      0.50306  1.0000
  O2          0.23897      0.58485      0.16980  1.0000
  O2          0.35140      0.78812      0.83695  1.0000
  O2          0.12523      0.21727      0.97824  1.0000
  O2          0.79149      0.92139      0.30751  1.0000
  O2          0.09558      0.88485      0.64075  1.0000
  O2          0.88121      0.79564      0.47496  1.0000
  O2          0.23262      0.11428      0.80905  1.0000
  O2          0.91162      0.13272      0.14485  1.0000
  O2          0.21608      0.13423      0.36299  1.0000
  O3          0.91461      0.77885      0.02676  1.0000
  O2          0.88323      0.09683      0.69468  1.0000
  O2          0.79236      0.88314      0.86350  1.0000
  O2          0.09524      0.22296      0.52909  1.0000
  O2          0.12625      0.91664      0.19618  1.0000
  O2          0.93486      0.86374      0.25347  1.0000
  O2          0.14486      0.07910      0.58530  1.0000
  O2          0.93870      0.07703      0.91807  1.0000
  O2          0.07660      0.14595      0.75217  1.0000
  O3          0.87390      0.94289      0.08887  1.0000
  O2          0.07490      0.94013      0.41913  1.0000
  O2          0.89566      0.19717      0.98348  1.0000
  O2          0.79697      0.70541      0.31556  1.0000
  O2          0.31047      0.10859      0.64802  1.0000
  O2          0.10541      0.80536      0.48151  1.0000
  O3          0.20552      0.31629      0.81504  1.0000
  O2          0.69801      0.90786      0.14832  1.0000
  O2          0.20933      0.91219      0.35603  1.0000
  O3          0.68587      0.78619      0.02510  1.0000
  O2          0.10652      0.31139      0.68909  1.0000
  O2          0.81013      0.10972      0.85441  1.0000
  O2          0.30940      0.21370      0.52254  1.0000
  O2          0.90112      0.70418      0.18772  1.0000
  O2          0.32569      0.65300      0.25264  1.0000
  O2          0.36266      0.68723      0.58600  1.0000
  O2          0.31889      0.67729      0.91681  1.0000
  O2          0.69424      0.36859      0.75038  1.0000
  O2          0.64216      0.32291      0.08448  1.0000
  O2          0.68211      0.33192      0.41808  1.0000
  O2          0.37366      0.32759      0.96869  1.0000
  O2          0.67482      0.05345      0.30581  1.0000
  O2          0.96399      0.63620      0.63856  1.0000
  O2          0.63233      0.67912      0.47317  1.0000
  O2          0.34355      0.97782      0.80556  1.0000
  O2          0.04331      0.37937      0.14067  1.0000
  O2          0.33237      0.38244      0.36471  1.0000
  O2          0.04305      0.66405      0.03071  1.0000
  O2          0.63350      0.96617      0.69723  1.0000
  O2          0.67501      0.63488      0.86527  1.0000
  O2          0.96394      0.33954      0.53036  1.0000
  O2          0.37447      0.04943      0.19771  1.0000
  O2          0.76794      0.29964      0.01287  1.0000
  O2          0.69874      0.47536      0.34556  1.0000
  O2          0.54358      0.24011      0.67820  1.0000
  O2          0.23729      0.70605      0.51261  1.0000
  O3          0.30695      0.55532      0.84013  1.0000
  O2          0.46754      0.77636      0.17926  1.0000
  O2          0.30806      0.78027      0.32501  1.0000
  O2          0.46343      0.69317      0.98710  1.0000
  O2          0.23771      0.54251      0.65817  1.0000
  O2          0.71703      0.24566      0.82322  1.0000
  O2          0.53947      0.31278      0.49103  1.0000
  O2          0.76922      0.47272      0.15691  1.0000
  O2          0.78114      0.53099      0.02862  1.0000
  O2          0.46769      0.25840      0.36291  1.0000
  O2          0.76078      0.22497      0.69501  1.0000
  O2          0.22314      0.47452      0.53007  1.0000
  O2          0.53715      0.75497      0.86587  1.0000
  O2          0.25027      0.79013      0.19706  1.0000
  O2          0.53931      0.79480      0.30764  1.0000
  O2          0.25166      0.46555      0.96972  1.0000
  O2          0.22238      0.75943      0.64077  1.0000
  O2          0.48551      0.23364      0.80695  1.0000
  O2          0.75585      0.54390      0.47404  1.0000
  O2          0.78399      0.25619      0.14150  1.0000
  O3          0.21839      0.30895      0.89949  1.0000
  O2          0.67937      0.91687      0.23322  1.0000
  O2          0.09854      0.77758      0.56626  1.0000
  O2          0.77245      0.68521      0.40037  1.0000
  O2          0.33707      0.11098      0.73323  1.0000
  O2          0.90515      0.23066      0.06861  1.0000
  O2          0.32799      0.24185      0.43743  1.0000
  O2          0.90611      0.67849      0.10246  1.0000
  O2          0.78051      0.10181      0.76937  1.0000
  O2          0.67670      0.76673      0.93816  1.0000
  O2          0.09924      0.33304      0.60380  1.0000
  O2          0.23521      0.91671      0.27093  1.0000
  O2          0.57869      0.55424      0.98826  1.0000
  O2          0.44652      0.03818      0.32587  1.0000
  O2          0.98002      0.42311      0.65868  1.0000
  O2          0.41960      0.45103      0.49319  1.0000
  O2          0.57238      0.98755      0.82559  1.0000
  O2          0.02941      0.59418      0.15848  1.0000
  O2          0.56070      0.59644      0.34504  1.0000
  O2          0.02893      0.43551      0.01241  1.0000
  O2          0.41853      0.98154      0.67853  1.0000
  O3          0.46042      0.41941      0.83747  1.0000
  O2          0.97826      0.56772      0.51022  1.0000
  O2          0.58811      0.03529      0.17734  1.0000
  O2          0.58593      0.17344      0.25156  1.0000
  O2          0.84239      0.42701      0.58413  1.0000
  O2          0.58395      0.42048      0.91564  1.0000
  O2          0.42633      0.84894      0.75256  1.0000
  O2          0.16733      0.58323      0.08577  1.0000
  O2          0.42067      0.59112      0.41949  1.0000
  F           0.45531      0.91201      0.25123  1.0000
  F           0.10374      0.55803      0.58436  1.0000
  F           0.42631      0.52303      0.90646  1.0000
  F           0.56236      0.10982      0.75137  1.0000
  F           0.90308      0.45434      0.08464  1.0000
  F           0.55214      0.46114      0.41810  1.0000
