data_cif

_audit_creation_method             'generated by GULP'

_symmetry_space_group_name_H-M     'P 1'
_symmetry_Int_Tables_number        1
_symmetry_cell_setting             triclinic

_cell_length_a                       11.9490
_cell_length_b                       11.9824
_cell_length_c                       29.5234
_cell_angle_alpha                   89.5933
_cell_angle_beta                    90.3072
_cell_angle_gamma                  120.3012

loop_
_atom_site_label
_atom_site_fract_x
_atom_site_fract_y
_atom_site_fract_z
_atom_site_occupancy
  Si          0.69960      0.37570      0.03389  1.0000
  Si          0.59436      0.32448      0.36816  1.0000
  Si          0.64684      0.28129      0.69997  1.0000
  Si          0.27107      0.61045      0.53613  1.0000
  Si          0.35190      0.66238      0.86829  1.0000
  Si          0.31064      0.69638      0.20313  1.0000
  Si          0.35851      0.69421      0.30599  1.0000
  Si          0.30408      0.61289      0.97123  1.0000
  Si          0.26674      0.66083      0.63639  1.0000
  Si          0.59519      0.28358      0.80040  1.0000
  Si          0.65111      0.37187      0.46839  1.0000
  Si          0.69235      0.31836      0.13406  1.0000
  Si          0.51771      0.40069      0.96900  1.0000
  Si          0.57274      0.12067      0.30344  1.0000
  Si          0.85680      0.45321      0.63467  1.0000
  Si          0.44284      0.57300      0.47173  1.0000
  Si          0.39035      0.87416      0.80308  1.0000
  Si          0.09959      0.52678      0.13758  1.0000
  Si          0.38480      0.51999      0.37078  1.0000
  Si          0.10544      0.58538      0.03670  1.0000
  Si          0.43785      0.86996      0.70171  1.0000
  Si          0.56101      0.45647      0.86529  1.0000
  Si          0.86043      0.40497      0.53329  1.0000
  Si          0.51824      0.11045      0.19973  1.0000
  Si          0.27347      0.38193      0.84944  1.0000
  Si          0.59263      0.89905      0.18441  1.0000
  Si          0.07037      0.68782      0.52009  1.0000
  Si          0.66856      0.60225      0.35335  1.0000
  Si          0.36635      0.07898      0.68646  1.0000
  Si          0.90281      0.30158      0.01947  1.0000
  Si          0.37304      0.29273      0.48478  1.0000
  Si          0.89006      0.59728      0.15059  1.0000
  Si          0.67271      0.08348      0.81622  1.0000
  Si          0.58750      0.68499      0.98413  1.0000
  Si          0.06531      0.38144      0.64984  1.0000
  Si          0.28682      0.90414      0.31850  1.0000
  Ge          0.25226      0.34717      0.94938  1.0000
  Ge          0.62634      0.91004      0.28438  1.0000
  Si          0.05856      0.73320      0.62059  1.0000
  Si          0.72185      0.65305      0.45427  1.0000
  Si          0.31231      0.07421      0.78711  1.0000
  Si          0.90213      0.24715      0.12045  1.0000
  Si          0.31106      0.24264      0.38470  1.0000
  Si          0.90194      0.65919      0.05025  1.0000
  Si          0.71869      0.07241      0.71574  1.0000
  Si          0.64081      0.73727      0.88200  1.0000
  Si          0.06130      0.32695      0.54933  1.0000
  Si          0.23560      0.90875      0.21640  1.0000
  Si          0.96629      0.11992      0.96708  1.0000
  Si          0.85196      0.84970      0.30100  1.0000
  Si          0.11863      0.01178      0.63474  1.0000
  Si          0.00398      0.86855      0.46852  1.0000
  Si          0.09548      0.13701      0.79982  1.0000
  Si          0.83647      0.96599      0.13354  1.0000
  Si          0.09662      0.96209      0.36738  1.0000
  Si          0.83836      0.87453      0.03300  1.0000
  Si          0.99737      0.13194      0.69967  1.0000
  Si          0.85686      0.02163      0.86752  1.0000
  Si          0.12425      0.11005      0.53411  1.0000
  Si          0.95148      0.84188      0.20144  1.0000
  O2          0.91139      0.99294      0.99907  1.0000
  O2          0.97852      0.91779      0.33337  1.0000
  O2          0.03732      0.05334      0.66626  1.0000
  O2          0.04728      0.99224      0.49988  1.0000
  O2          0.97579      0.06282      0.83375  1.0000
  O2          0.91195      0.91984      0.16677  1.0000
  O2          0.30541      0.56778      0.33883  1.0000
  O2          0.38881      0.74411      0.66995  1.0000
  O2          0.23203      0.66496      0.00451  1.0000
  O2          0.63601      0.40859      0.83228  1.0000
  O2          0.56690      0.23328      0.16611  1.0000
  O2          0.73597      0.33093      0.50018  1.0000
  O2          0.57998      0.33319      0.99924  1.0000
  O2          0.73008      0.40336      0.66663  1.0000
  O2          0.63844      0.24973      0.33371  1.0000
  O2          0.39609      0.65001      0.50444  1.0000
  O2          0.22326      0.57373      0.17117  1.0000
  O2          0.31534      0.74951      0.83645  1.0000
  O3          0.11632      0.20116      0.97101  1.0000
  O3          0.77230      0.91912      0.30558  1.0000
  O2          0.05581      0.85759      0.64069  1.0000
  O2          0.84936      0.77844      0.47464  1.0000
  O2          0.18578      0.07337      0.80711  1.0000
  O2          0.90229      0.12054      0.14026  1.0000
  O2          0.18496      0.11732      0.36392  1.0000
  O2          0.90330      0.78496      0.02909  1.0000
  O2          0.84247      0.06947      0.69499  1.0000
  O2          0.76429      0.86585      0.86221  1.0000
  O2          0.06117      0.20128      0.52921  1.0000
  O2          0.10772      0.90484      0.19655  1.0000
  O2          0.91012      0.85428      0.25125  1.0000
  O2          0.10694      0.05122      0.58400  1.0000
  O2          0.90929      0.06197      0.91762  1.0000
  O2          0.03794      0.11461      0.74967  1.0000
  O2          0.85289      0.93006      0.08302  1.0000
  O2          0.04188      0.91606      0.41743  1.0000
  O2          0.90339      0.20844      0.98052  1.0000
  O2          0.76142      0.69709      0.31397  1.0000
  O2          0.27027      0.08157      0.64797  1.0000
  O2          0.07370      0.78721      0.48178  1.0000
  O2          0.18278      0.29132      0.80788  1.0000
  O2          0.68256      0.89921      0.14286  1.0000
  O2          0.18721      0.90111      0.35588  1.0000
  O2          0.68527      0.78435      0.02165  1.0000
  O2          0.06682      0.28424      0.68822  1.0000
  O2          0.77175      0.08759      0.85483  1.0000
  O2          0.27729      0.19391      0.52358  1.0000
  O2          0.88494      0.69042      0.18922  1.0000
  O2          0.31035      0.64436      0.25404  1.0000
  O2          0.32719      0.66504      0.58663  1.0000
  O2          0.30096      0.66137      0.91927  1.0000
  O2          0.65080      0.34005      0.75004  1.0000
  O2          0.63672      0.31903      0.08365  1.0000
  O2          0.65037      0.31732      0.41798  1.0000
  O3          0.36563      0.30992      0.97404  1.0000
  O3          0.66360      0.06020      0.30883  1.0000
  O2          0.92517      0.60941      0.63827  1.0000
  O2          0.59989      0.66070      0.47434  1.0000
  O2          0.30323      0.94289      0.80668  1.0000
  O2          0.03140      0.37052      0.14085  1.0000
  O2          0.29671      0.36376      0.36794  1.0000
  O2          0.03774      0.67338      0.03407  1.0000
  O2          0.59454      0.93878      0.69886  1.0000
  O2          0.64624      0.61351      0.86335  1.0000
  O2          0.92888      0.31741      0.53064  1.0000
  O2          0.36094      0.03896      0.19792  1.0000
  O2          0.76776      0.30045      0.01292  1.0000
  O2          0.66954      0.46883      0.34692  1.0000
  O2          0.50170      0.21255      0.67873  1.0000
  O2          0.20460      0.68725      0.51362  1.0000
  O2          0.27742      0.51982      0.84575  1.0000
  O2          0.45378      0.76480      0.18072  1.0000
  O2          0.28720      0.77045      0.32445  1.0000
  O2          0.45284      0.68387      0.98982  1.0000
  O2          0.19862      0.51654      0.65836  1.0000
  O2          0.67043      0.21623      0.82342  1.0000
  O2          0.50880      0.29556      0.49202  1.0000
  O2          0.75828      0.45979      0.15770  1.0000
  O2          0.77873      0.53242      0.02929  1.0000
  O2          0.43719      0.24577      0.36373  1.0000
  O2          0.71898      0.19782      0.69551  1.0000
  O2          0.18838      0.45430      0.53067  1.0000
  O2          0.50764      0.72741      0.86576  1.0000
  O2          0.24581      0.78651      0.20029  1.0000
  O3          0.51185      0.76790      0.31322  1.0000
  O3          0.22389      0.45992      0.97810  1.0000
  O2          0.18500      0.73505      0.64104  1.0000
  O2          0.43843      0.20269      0.80589  1.0000
  O2          0.72631      0.52823      0.47276  1.0000
  O2          0.77238      0.24215      0.13871  1.0000
  O3          0.19701      0.29987      0.89271  1.0000
  O3          0.67427      0.90415      0.22774  1.0000
  O2          0.06363      0.75546      0.56646  1.0000
  O2          0.73770      0.67504      0.40015  1.0000
  O2          0.29275      0.07412      0.73292  1.0000
  O2          0.90770      0.23293      0.06634  1.0000
  O2          0.29595      0.22023      0.43894  1.0000
  O2          0.89367      0.67301      0.10440  1.0000
  O2          0.74201      0.07868      0.76989  1.0000
  O2          0.65479      0.74652      0.93609  1.0000
  O2          0.06194      0.30805      0.60359  1.0000
  O2          0.22540      0.91087      0.27049  1.0000
  O2          0.56904      0.54363      0.99105  1.0000
  O2          0.42891      0.02744      0.32528  1.0000
  O2          0.93884      0.39402      0.65827  1.0000
  O2          0.38496      0.43075      0.49444  1.0000
  O2          0.53357      0.95586      0.82561  1.0000
  O2          0.01836      0.58758      0.16002  1.0000
  O2          0.52443      0.57844      0.34644  1.0000
  O2          0.02321      0.44599      0.01254  1.0000
  O2          0.38061      0.95384      0.67838  1.0000
  O2          0.41846      0.40403      0.84373  1.0000
  O2          0.94570      0.54754      0.51090  1.0000
  O2          0.57092      0.02164      0.17841  1.0000
  O2          0.56843      0.16213      0.25057  1.0000
  O2          0.80480      0.40192      0.58378  1.0000
  O2          0.56341      0.40662      0.91623  1.0000
  O2          0.38546      0.81787      0.75274  1.0000
  O2          0.15776      0.58260      0.08750  1.0000
  O2          0.38725      0.57374      0.42142  1.0000
  F           0.47654      0.90546      0.25752  1.0000
  F           0.06746      0.53433      0.58585  1.0000
  F           0.39768      0.49709      0.92282  1.0000
  F           0.51831      0.07958      0.75259  1.0000
  F           0.89600      0.45177      0.08694  1.0000
  F           0.51751      0.44272      0.42065  1.0000
