data_cif

_audit_creation_method             'generated by GULP'

_symmetry_space_group_name_H-M     'P 1'
_symmetry_Int_Tables_number        1
_symmetry_cell_setting             triclinic

_cell_length_a                       11.9715
_cell_length_b                       11.9749
_cell_length_c                       29.3905
_cell_angle_alpha                   90.1390
_cell_angle_beta                    90.5520
_cell_angle_gamma                  120.0823

loop_
_atom_site_label
_atom_site_fract_x
_atom_site_fract_y
_atom_site_fract_z
_atom_site_occupancy
  Si          0.69960      0.37570      0.03389  1.0000
  Si          0.62124      0.32784      0.36755  1.0000
  Si          0.68827      0.30246      0.69986  1.0000
  Si          0.30486      0.62693      0.53594  1.0000
  Si          0.36740      0.68233      0.86649  1.0000
  Si          0.31985      0.70126      0.20267  1.0000
  Si          0.37918      0.70619      0.30364  1.0000
  Si          0.31638      0.61861      0.96902  1.0000
  Si          0.30377      0.68103      0.63689  1.0000
  Si          0.63973      0.31077      0.80016  1.0000
  Si          0.68123      0.38299      0.46842  1.0000
  Si          0.69780      0.32039      0.13479  1.0000
  Si          0.52670      0.41079      0.96660  1.0000
  Si          0.58304      0.11710      0.30223  1.0000
  Si          0.89501      0.47438      0.63448  1.0000
  Si          0.47547      0.58806      0.47104  1.0000
  Si          0.42629      0.90309      0.80409  1.0000
  Si          0.10847      0.52648      0.13732  1.0000
  Si          0.41817      0.53493      0.36904  1.0000
  Si          0.10919      0.57861      0.03536  1.0000
  Si          0.47637      0.89261      0.70281  1.0000
  Si          0.58375      0.46698      0.86359  1.0000
  Si          0.89488      0.42194      0.53268  1.0000
  Si          0.52645      0.11236      0.20019  1.0000
  Ge          0.31083      0.41285      0.85957  1.0000
  Si          0.59667      0.90247      0.18741  1.0000
  Si          0.10354      0.70276      0.51976  1.0000
  Si          0.69764      0.60581      0.35409  1.0000
  Si          0.40723      0.10297      0.68640  1.0000
  Si          0.90003      0.29786      0.01984  1.0000
  Si          0.40415      0.30700      0.48433  1.0000
  Si          0.89991      0.59901      0.15101  1.0000
  Si          0.70953      0.10735      0.81780  1.0000
  Si          0.59964      0.69736      0.98199  1.0000
  Si          0.10299      0.40161      0.65020  1.0000
  Si          0.30280      0.90829      0.31728  1.0000
  Si          0.24184      0.33057      0.95548  1.0000
  Si          0.66002      0.91513      0.28815  1.0000
  Si          0.09524      0.75355      0.62061  1.0000
  Si          0.75340      0.66447      0.45495  1.0000
  Si          0.35480      0.10770      0.78718  1.0000
  Si          0.90647      0.24737      0.12089  1.0000
  Si          0.34137      0.25637      0.38336  1.0000
  Si          0.90837      0.65596      0.05015  1.0000
  Si          0.75730      0.09208      0.71739  1.0000
  Si          0.65420      0.74870      0.88001  1.0000
  Si          0.09635      0.34533      0.54901  1.0000
  Si          0.24858      0.91088      0.21625  1.0000
  Si          0.96967      0.11638      0.97276  1.0000
  Si          0.87762      0.85222      0.30325  1.0000
  Si          0.15709      0.03360      0.63573  1.0000
  Si          0.03459      0.88229      0.46946  1.0000
  Si          0.13334      0.16479      0.80336  1.0000
  Si          0.84289      0.96678      0.13743  1.0000
  Si          0.12349      0.97586      0.36837  1.0000
  Si          0.84540      0.87253      0.03665  1.0000
  Si          0.03634      0.15434      0.70155  1.0000
  Ge          0.88689      0.03081      0.86763  1.0000
  Si          0.15780      0.12723      0.53465  1.0000
  Si          0.96769      0.84739      0.20223  1.0000
  O2          0.92624      0.99859      0.00722  1.0000
  O2          0.00037      0.93320      0.33586  1.0000
  O2          0.07747      0.07488      0.66829  1.0000
  O2          0.07768      0.00499      0.50185  1.0000
  O3          0.01284      0.06455      0.83345  1.0000
  O2          0.92412      0.92813      0.17081  1.0000
  O2          0.34113      0.58464      0.33683  1.0000
  O2          0.42557      0.76514      0.67082  1.0000
  O2          0.23497      0.65616      0.00334  1.0000
  O2          0.67705      0.43342      0.83359  1.0000
  O2          0.57454      0.23611      0.16704  1.0000
  O2          0.76840      0.34457      0.50001  1.0000
  O2          0.57777      0.33828      0.00003  1.0000
  O2          0.76920      0.42313      0.66627  1.0000
  O2          0.65973      0.24424      0.33431  1.0000
  O2          0.42867      0.66530      0.50391  1.0000
  O2          0.23394      0.57593      0.17037  1.0000
  O2          0.34292      0.78344      0.83804  1.0000
  O2          0.12258      0.21203      0.98195  1.0000
  O2          0.78802      0.91710      0.30794  1.0000
  O2          0.09398      0.87926      0.64063  1.0000
  O2          0.88063      0.79085      0.47517  1.0000
  O2          0.23489      0.11300      0.80855  1.0000
  O2          0.90695      0.12156      0.14100  1.0000
  O2          0.21336      0.13016      0.36329  1.0000
  O2          0.90906      0.78255      0.03016  1.0000
  O2          0.88123      0.08949      0.69676  1.0000
  O3          0.77656      0.86811      0.85874  1.0000
  O2          0.09577      0.21897      0.52858  1.0000
  O2          0.12147      0.91011      0.19608  1.0000
  O2          0.93035      0.86106      0.25299  1.0000
  O2          0.14365      0.07438      0.58520  1.0000
  O3          0.93724      0.05468      0.92352  1.0000
  O2          0.07890      0.14343      0.75177  1.0000
  O2          0.85185      0.91764      0.08796  1.0000
  O2          0.07183      0.93446      0.41878  1.0000
  O2          0.89728      0.19843      0.98145  1.0000
  O2          0.79417      0.70139      0.31551  1.0000
  O2          0.30931      0.10242      0.64764  1.0000
  O2          0.10515      0.80101      0.48129  1.0000
  O3          0.19598      0.30951      0.81753  1.0000
  O2          0.69170      0.89899      0.14908  1.0000
  O2          0.20623      0.90770      0.35573  1.0000
  O2          0.69475      0.79072      0.02172  1.0000
  O2          0.10405      0.30540      0.68860  1.0000
  O3          0.80586      0.11298      0.85731  1.0000
  O2          0.30952      0.20902      0.52285  1.0000
  O2          0.89770      0.69558      0.18947  1.0000
  O2          0.32109      0.64641      0.25326  1.0000
  O2          0.36211      0.68325      0.58668  1.0000
  O2          0.31541      0.67461      0.91887  1.0000
  O2          0.69318      0.36569      0.74961  1.0000
  O2          0.64085      0.31860      0.08389  1.0000
  O2          0.67960      0.32656      0.41773  1.0000
  O2          0.37115      0.32616      0.97061  1.0000
  O2          0.67086      0.04874      0.30576  1.0000
  O2          0.96270      0.63054      0.63817  1.0000
  O2          0.63208      0.67512      0.47366  1.0000
  O2          0.34208      0.97434      0.80544  1.0000
  O2          0.03928      0.37014      0.13971  1.0000
  O2          0.33034      0.37855      0.36541  1.0000
  O2          0.04018      0.66573      0.03175  1.0000
  O2          0.63243      0.95982      0.69930  1.0000
  O2          0.66199      0.62351      0.86471  1.0000
  O2          0.96388      0.33478      0.52979  1.0000
  O2          0.36985      0.04266      0.19722  1.0000
  O2          0.76745      0.30063      0.01147  1.0000
  O2          0.69565      0.47118      0.34555  1.0000
  O2          0.54377      0.23288      0.67771  1.0000
  O2          0.23759      0.70252      0.51295  1.0000
  O3          0.29000      0.54499      0.84292  1.0000
  O2          0.46208      0.76826      0.17993  1.0000
  O2          0.30458      0.77545      0.32525  1.0000
  O2          0.46348      0.69200      0.98861  1.0000
  O2          0.23607      0.53705      0.65831  1.0000
  O2          0.71546      0.24458      0.82315  1.0000
  O2          0.53896      0.30777      0.49110  1.0000
  O2          0.76588      0.46423      0.15725  1.0000
  O2          0.78014      0.53202      0.02992  1.0000
  O2          0.46481      0.25388      0.36293  1.0000
  O2          0.76145      0.21946      0.69708  1.0000
  O2          0.22326      0.47081      0.53021  1.0000
  O2          0.52321      0.74245      0.86316  1.0000
  O2          0.24550      0.78286      0.19716  1.0000
  O2          0.53554      0.78970      0.30823  1.0000
  O2          0.25026      0.46393      0.97278  1.0000
  O2          0.22122      0.75449      0.64101  1.0000
  O2          0.48466      0.23131      0.80584  1.0000
  O2          0.75503      0.53905      0.47390  1.0000
  O2          0.78044      0.24716      0.13993  1.0000
  O3          0.20846      0.30325      0.90294  1.0000
  O2          0.67441      0.90991      0.23372  1.0000
  O2          0.09791      0.77286      0.56614  1.0000
  O2          0.77052      0.68132      0.40048  1.0000
  O2          0.33684      0.10650      0.73254  1.0000
  O2          0.90364      0.22779      0.06645  1.0000
  O2          0.32687      0.23702      0.43778  1.0000
  O2          0.90671      0.67424      0.10454  1.0000
  O2          0.77845      0.09416      0.77211  1.0000
  O2          0.66687      0.76576      0.93506  1.0000
  O2          0.09856      0.32782      0.60340  1.0000
  O2          0.23125      0.91118      0.27065  1.0000
  O2          0.58057      0.55539      0.98625  1.0000
  O2          0.44281      0.03403      0.32556  1.0000
  O2          0.97818      0.41671      0.65803  1.0000
  O2          0.41959      0.44681      0.49369  1.0000
  O2          0.56868      0.98396      0.82757  1.0000
  O2          0.02419      0.58321      0.16028  1.0000
  O2          0.55833      0.59282      0.34551  1.0000
  O2          0.02650      0.43721      0.01162  1.0000
  O2          0.41774      0.97499      0.67930  1.0000
  O3          0.44687      0.40729      0.83880  1.0000
  O2          0.97844      0.56312      0.50975  1.0000
  O2          0.58308      0.02758      0.17748  1.0000
  O2          0.58141      0.16792      0.25103  1.0000
  O2          0.84151      0.42166      0.58332  1.0000
  O2          0.57499      0.41067      0.91536  1.0000
  O2          0.42515      0.84331      0.75407  1.0000
  O2          0.16218      0.57971      0.08659  1.0000
  O2          0.41999      0.58776      0.42020  1.0000
  F           0.45080      0.90609      0.25157  1.0000
  F           0.10267      0.55305      0.58431  1.0000
  F           0.41822      0.51649      0.90743  1.0000
  F           0.56288      0.10504      0.75231  1.0000
  F           0.90047      0.44942      0.08453  1.0000
  F           0.55056      0.45670      0.41854  1.0000
