data_cif

_audit_creation_method             'generated by GULP'

_symmetry_space_group_name_H-M     'P 1'
_symmetry_Int_Tables_number        1
_symmetry_cell_setting             triclinic

_cell_length_a                       11.9487
_cell_length_b                       11.9456
_cell_length_c                       29.5276
_cell_angle_alpha                   90.0003
_cell_angle_beta                    89.4804
_cell_angle_gamma                  119.9915

loop_
_atom_site_label
_atom_site_fract_x
_atom_site_fract_y
_atom_site_fract_z
_atom_site_occupancy
  Si          0.69960      0.37570      0.03389  1.0000
  Si          0.59876      0.31884      0.36523  1.0000
  Si          0.65264      0.28644      0.69605  1.0000
  Si          0.26995      0.60839      0.53321  1.0000
  Si          0.35638      0.66174      0.86831  1.0000
  Si          0.30636      0.69709      0.20171  1.0000
  Si          0.35942      0.69916      0.30201  1.0000
  Si          0.30553      0.61289      0.97119  1.0000
  Si          0.25855      0.65518      0.63335  1.0000
  Si          0.60180      0.28446      0.79893  1.0000
  Si          0.65182      0.36983      0.46553  1.0000
  Si          0.68823      0.31753      0.13404  1.0000
  Si          0.51936      0.39982      0.96888  1.0000
  Si          0.56282      0.10982      0.30031  1.0000
  Si          0.85420      0.45947      0.63089  1.0000
  Si          0.44633      0.57466      0.46832  1.0000
  Si          0.39539      0.87086      0.80207  1.0000
  Si          0.09793      0.52558      0.13727  1.0000
  Si          0.39536      0.52610      0.36693  1.0000
  Si          0.10396      0.58434      0.03635  1.0000
  Si          0.43881      0.85955      0.69836  1.0000
  Si          0.56279      0.45456      0.86517  1.0000
  Si          0.86024      0.40674      0.52997  1.0000
  Si          0.51185      0.10741      0.19892  1.0000
  Si          0.27637      0.37998      0.84972  1.0000
  Si          0.58455      0.89824      0.18589  1.0000
  Si          0.07153      0.68799      0.51668  1.0000
  Si          0.67652      0.59805      0.35171  1.0000
  Si          0.37016      0.07576      0.68339  1.0000
  Si          0.90318      0.30138      0.01905  1.0000
  Si          0.37363      0.29278      0.48135  1.0000
  Si          0.88665      0.59555      0.15056  1.0000
  Si          0.68181      0.08270      0.81752  1.0000
  Si          0.58801      0.68468      0.98385  1.0000
  Si          0.05498      0.37728      0.64820  1.0000
  Si          0.28166      0.90061      0.31553  1.0000
  Ge          0.25417      0.34596      0.94973  1.0000
  Si          0.64093      0.90824      0.28629  1.0000
  Si          0.05811      0.73707      0.61684  1.0000
  Si          0.72550      0.65237      0.45222  1.0000
  Si          0.31404      0.07162      0.78556  1.0000
  Si          0.89955      0.24678      0.11994  1.0000
  Si          0.31726      0.24640      0.38095  1.0000
  Si          0.90005      0.65803      0.05040  1.0000
  Ge          0.70400      0.07087      0.71751  1.0000
  Si          0.64414      0.73668      0.88168  1.0000
  Si          0.05862      0.32632      0.54730  1.0000
  Si          0.23268      0.90596      0.21502  1.0000
  Si          0.96910      0.11869      0.96760  1.0000
  Si          0.85858      0.84650      0.30094  1.0000
  Si          0.12253      0.01687      0.63371  1.0000
  Si          0.00557      0.86980      0.46705  1.0000
  Si          0.09727      0.13837      0.79866  1.0000
  Si          0.83273      0.96493      0.13458  1.0000
  Si          0.09960      0.96701      0.36630  1.0000
  Si          0.83565      0.87342      0.03354  1.0000
  Si          0.98907      0.12868      0.69964  1.0000
  Si          0.86091      0.02019      0.86858  1.0000
  Si          0.12545      0.11130      0.53266  1.0000
  Si          0.95261      0.84333      0.20019  1.0000
  O2          0.91223      0.99367      0.00056  1.0000
  O2          0.97909      0.92519      0.33362  1.0000
  O2          0.04594      0.06053      0.66668  1.0000
  O2          0.04614      0.98855      0.50081  1.0000
  O2          0.97909      0.06414      0.83362  1.0000
  O2          0.91204      0.92149      0.16643  1.0000
  O2          0.31937      0.57638      0.33515  1.0000
  O2          0.37668      0.73061      0.66818  1.0000
  O2          0.23148      0.66467      0.00418  1.0000
  O2          0.63806      0.40715      0.83122  1.0000
  O2          0.56212      0.23201      0.16583  1.0000
  O2          0.73657      0.33000      0.49729  1.0000
  O2          0.58147      0.33300      0.99906  1.0000
  O2          0.72669      0.41227      0.66306  1.0000
  O2          0.63881      0.23610      0.33209  1.0000
  O2          0.39605      0.64898      0.50142  1.0000
  O2          0.22161      0.57251      0.16995  1.0000
  O2          0.32012      0.74818      0.83602  1.0000
  O3          0.11870      0.19987      0.97150  1.0000
  O2          0.76783      0.91027      0.30643  1.0000
  O2          0.05679      0.86192      0.63762  1.0000
  O2          0.85112      0.77800      0.47256  1.0000
  O2          0.18903      0.07423      0.80512  1.0000
  O2          0.89765      0.11944      0.14009  1.0000
  O2          0.19035      0.12153      0.36081  1.0000
  O2          0.90137      0.78420      0.02962  1.0000
  O3          0.83947      0.06025      0.69574  1.0000
  O2          0.76915      0.86429      0.86212  1.0000
  O2          0.06053      0.20089      0.52715  1.0000
  O2          0.10706      0.90596      0.19468  1.0000
  O2          0.91263      0.86010      0.25039  1.0000
  O2          0.11532      0.06177      0.58349  1.0000
  O2          0.91561      0.05722      0.91833  1.0000
  O2          0.04256      0.12070      0.74891  1.0000
  O2          0.84286      0.92554      0.08375  1.0000
  O2          0.04555      0.92657      0.41685  1.0000
  O2          0.90599      0.20867      0.97986  1.0000
  O2          0.77531      0.69468      0.31313  1.0000
  O2          0.27402      0.07941      0.64618  1.0000
  O2          0.07533      0.78702      0.47804  1.0000
  O2          0.18688      0.29160      0.80808  1.0000
  O2          0.68115      0.89574      0.14742  1.0000
  O2          0.18287      0.89846      0.35411  1.0000
  O2          0.68415      0.78448      0.02106  1.0000
  O2          0.05217      0.28177      0.68739  1.0000
  O2          0.77130      0.08381      0.85916  1.0000
  O2          0.27703      0.19368      0.51983  1.0000
  O2          0.88285      0.69078      0.18920  1.0000
  O2          0.30429      0.64034      0.25208  1.0000
  O2          0.32333      0.66278      0.58373  1.0000
  O2          0.30349      0.66100      0.91913  1.0000
  O2          0.65469      0.33659      0.74811  1.0000
  O2          0.63483      0.31852      0.08351  1.0000
  O2          0.65389      0.31514      0.41516  1.0000
  O3          0.36758      0.30892      0.97379  1.0000
  O2          0.65068      0.04136      0.30379  1.0000
  O2          0.92239      0.61558      0.63383  1.0000
  O2          0.60278      0.66217      0.47108  1.0000
  O2          0.31096      0.94313      0.80464  1.0000
  O2          0.02909      0.36897      0.13978  1.0000
  O2          0.30750      0.36978      0.36346  1.0000
  O2          0.03577      0.67226      0.03341  1.0000
  O3          0.59059      0.92042      0.69345  1.0000
  O2          0.64722      0.61126      0.86260  1.0000
  O2          0.92909      0.31898      0.52746  1.0000
  O2          0.35540      0.03848      0.19617  1.0000
  O2          0.76862      0.30066      0.01231  1.0000
  O2          0.67506      0.46337      0.34352  1.0000
  O2          0.50469      0.20997      0.67786  1.0000
  O2          0.20456      0.68500      0.50982  1.0000
  O2          0.28370      0.51965      0.84564  1.0000
  O2          0.45002      0.76417      0.17900  1.0000
  O2          0.28312      0.76740      0.32372  1.0000
  O2          0.45349      0.68437      0.98938  1.0000
  O2          0.18954      0.51113      0.65493  1.0000
  O2          0.67448      0.21504      0.82160  1.0000
  O2          0.50816      0.29325      0.48824  1.0000
  O2          0.75362      0.45953      0.15742  1.0000
  O2          0.77693      0.53254      0.02933  1.0000
  O2          0.44252      0.24536      0.36066  1.0000
  O3          0.73178      0.21264      0.68889  1.0000
  O2          0.18798      0.45202      0.52891  1.0000
  O2          0.51207      0.72855      0.86556  1.0000
  O2          0.23214      0.77900      0.19620  1.0000
  O2          0.51566      0.78192      0.30658  1.0000
  O3          0.22639      0.45995      0.97835  1.0000
  O2          0.18122      0.73469      0.63791  1.0000
  O2          0.44611      0.19558      0.80168  1.0000
  O2          0.72604      0.52595      0.47105  1.0000
  O2          0.77019      0.24312      0.13834  1.0000
  O3          0.19918      0.29928      0.89317  1.0000
  O2          0.65903      0.90411      0.23212  1.0000
  O2          0.06618      0.75953      0.56266  1.0000
  O2          0.74611      0.67162      0.39800  1.0000
  O2          0.30173      0.06789      0.73155  1.0000
  O2          0.90621      0.23182      0.06579  1.0000
  O2          0.29915      0.22417      0.43512  1.0000
  O2          0.89199      0.67244      0.10458  1.0000
  O3          0.75900      0.07919      0.77407  1.0000
  O2          0.65645      0.74525      0.93569  1.0000
  O2          0.05195      0.30469      0.60145  1.0000
  O2          0.21207      0.90460      0.26924  1.0000
  O2          0.56892      0.54286      0.99071  1.0000
  O2          0.42103      0.02657      0.32375  1.0000
  O2          0.93420      0.40031      0.65532  1.0000
  O2          0.38808      0.43222      0.49083  1.0000
  O2          0.53787      0.95699      0.82330  1.0000
  O2          0.01247      0.58249      0.15987  1.0000
  O2          0.53715      0.58463      0.34349  1.0000
  O2          0.02396      0.44519      0.01192  1.0000
  O2          0.38926      0.95303      0.67653  1.0000
  O2          0.42031      0.39820      0.84394  1.0000
  O2          0.94571      0.54910      0.50737  1.0000
  O2          0.57010      0.02323      0.17641  1.0000
  O2          0.56397      0.16217      0.24938  1.0000
  O2          0.80319      0.40565      0.58031  1.0000
  O2          0.56637      0.40530      0.91589  1.0000
  O2          0.39181      0.81803      0.75135  1.0000
  O2          0.15498      0.58154      0.08693  1.0000
  O2          0.39421      0.57729      0.41786  1.0000
  F           0.43353      0.89997      0.25069  1.0000
  F           0.06511      0.53732      0.58177  1.0000
  F           0.40010      0.49576      0.92237  1.0000
  F           0.55808      0.07475      0.74487  1.0000
  F           0.89306      0.45129      0.08547  1.0000
  F           0.52465      0.44552      0.41656  1.0000
