data_cif

_audit_creation_method             'generated by GULP'

_symmetry_space_group_name_H-M     'P 1'
_symmetry_Int_Tables_number        1
_symmetry_cell_setting             triclinic

_cell_length_a                       12.0213
_cell_length_b                       11.9117
_cell_length_c                       29.5241
_cell_angle_alpha                   90.1123
_cell_angle_beta                    89.7775
_cell_angle_gamma                  120.3049

loop_
_atom_site_label
_atom_site_fract_x
_atom_site_fract_y
_atom_site_fract_z
_atom_site_occupancy
  Si          0.69960      0.37570      0.03389  1.0000
  Si          0.60349      0.32118      0.36627  1.0000
  Si          0.65480      0.27793      0.70003  1.0000
  Si          0.28454      0.61276      0.53039  1.0000
  Si          0.35679      0.65786      0.86706  1.0000
  Si          0.31321      0.70263      0.20014  1.0000
  Si          0.36623      0.70263      0.30026  1.0000
  Si          0.30503      0.61276      0.97001  1.0000
  Si          0.27789      0.65786      0.63334  1.0000
  Si          0.59995      0.27793      0.80037  1.0000
  Si          0.65291      0.37570      0.46651  1.0000
  Si          0.69450      0.32118      0.13413  1.0000
  Si          0.51580      0.39632      0.96978  1.0000
  Si          0.56968      0.11243      0.30090  1.0000
  Si          0.86374      0.44894      0.63435  1.0000
  Si          0.45967      0.58790      0.46598  1.0000
  Si          0.39757      0.86827      0.80088  1.0000
  Si          0.10364      0.53178      0.13538  1.0000
  Si          0.40495      0.53178      0.36502  1.0000
  Si          0.10505      0.58790      0.03442  1.0000
  Si          0.44752      0.86827      0.69952  1.0000
  Si          0.56201      0.44894      0.86605  1.0000
  Si          0.85733      0.39632      0.53062  1.0000
  Si          0.51956      0.11243      0.19950  1.0000
  Si          0.27733      0.37465      0.84944  1.0000
  Si          0.59178      0.90313      0.18554  1.0000
  Si          0.07447      0.68345      0.51630  1.0000
  Si          0.68408      0.60145      0.35085  1.0000
  Si          0.37551      0.07755      0.68543  1.0000
  Si          0.90233      0.30283      0.01807  1.0000
  Si          0.37731      0.30283      0.48233  1.0000
  Si          0.89419      0.60145      0.14955  1.0000
  Si          0.67885      0.07755      0.81497  1.0000
  Si          0.58579      0.68345      0.98410  1.0000
  Si          0.07413      0.37465      0.65096  1.0000
  Si          0.28816      0.90313      0.31486  1.0000
  Ge          0.25279      0.34366      0.94944  1.0000
  Si          0.64849      0.91155      0.28609  1.0000
  Si          0.06641      0.73226      0.61838  1.0000
  Si          0.73523      0.66036      0.45109  1.0000
  Si          0.31815      0.06861      0.78616  1.0000
  Si          0.90399      0.25090      0.11888  1.0000
  Si          0.32372      0.25090      0.38152  1.0000
  Si          0.90193      0.66036      0.04931  1.0000
  Si          0.72727      0.06861      0.71424  1.0000
  Si          0.64266      0.73226      0.88202  1.0000
  Ge          0.06769      0.34366      0.55096  1.0000
  Si          0.23987      0.91155      0.21431  1.0000
  Si          0.96583      0.11879      0.96673  1.0000
  Si          0.86600      0.85016      0.30053  1.0000
  Si          0.13201      0.01604      0.63325  1.0000
  Si          0.01584      0.87384      0.46730  1.0000
  Si          0.09981      0.12807      0.79991  1.0000
  Si          0.83832      0.96882      0.13425  1.0000
  Si          0.10732      0.96882      0.36615  1.0000
  Si          0.83482      0.87384      0.03310  1.0000
  Si          0.00508      0.12807      0.70049  1.0000
  Si          0.86085      0.01604      0.86715  1.0000
  Si          0.12978      0.11879      0.53367  1.0000
  Si          0.96097      0.85016      0.19987  1.0000
  O2          0.90808      0.99350      0.99964  1.0000
  O2          0.98550      0.92760      0.33408  1.0000
  O2          0.05029      0.05460      0.66613  1.0000
  O2          0.06223      0.99350      0.50076  1.0000
  O2          0.98113      0.05460      0.83427  1.0000
  O2          0.91891      0.92760      0.16632  1.0000
  O2          0.32726      0.57868      0.33281  1.0000
  O2          0.39845      0.74332      0.66642  1.0000
  O2          0.23137      0.66667      0.00198  1.0000
  O2          0.63879      0.40169      0.83322  1.0000
  O2          0.57066      0.23781      0.16667  1.0000
  O2          0.72913      0.33073      0.50014  1.0000
  O2          0.57842      0.33073      0.00026  1.0000
  O2          0.73971      0.40169      0.66718  1.0000
  O2          0.64396      0.23781      0.33373  1.0000
  O2          0.41211      0.66667      0.49842  1.0000
  O2          0.22824      0.57868      0.16759  1.0000
  O2          0.32169      0.74332      0.83398  1.0000
  O3          0.11510      0.19875      0.97088  1.0000
  O2          0.77510      0.91333      0.30604  1.0000
  O2          0.06926      0.85961      0.63839  1.0000
  O2          0.86137      0.78542      0.47200  1.0000
  O2          0.19072      0.06495      0.80637  1.0000
  O2          0.90376      0.12432      0.13916  1.0000
  O2          0.19737      0.12432      0.36124  1.0000
  O2          0.90086      0.78542      0.02840  1.0000
  O2          0.85105      0.06495      0.69403  1.0000
  O2          0.76717      0.85961      0.86201  1.0000
  O3          0.06047      0.19875      0.52952  1.0000
  O2          0.11505      0.91333      0.19436  1.0000
  O2          0.92165      0.86649      0.25020  1.0000
  O2          0.12426      0.05811      0.58312  1.0000
  O2          0.91067      0.05811      0.91728  1.0000
  O2          0.03991      0.10301      0.75020  1.0000
  O2          0.84606      0.92684      0.08354  1.0000
  O2          0.05759      0.92684      0.41687  1.0000
  O2          0.90372      0.20927      0.97878  1.0000
  O2          0.78226      0.69705      0.31196  1.0000
  O2          0.28193      0.08265      0.64720  1.0000
  O2          0.07782      0.78373      0.47887  1.0000
  O2          0.18779      0.28324      0.80775  1.0000
  O2          0.68767      0.90015      0.14734  1.0000
  O2          0.18929      0.90015      0.35306  1.0000
  O2          0.68273      0.78373      0.02153  1.0000
  O2          0.07226      0.28324      0.69265  1.0000
  O2          0.77753      0.08265      0.85320  1.0000
  O2          0.28237      0.20927      0.52162  1.0000
  O2          0.89160      0.69705      0.18844  1.0000
  O2          0.31030      0.64379      0.25020  1.0000
  O2          0.33184      0.65978      0.58273  1.0000
  O2          0.30475      0.65978      0.91767  1.0000
  O2          0.65657      0.33632      0.75020  1.0000
  O2          0.63851      0.31977      0.08383  1.0000
  O2          0.65808      0.31977      0.41657  1.0000
  O3          0.36423      0.30591      0.97457  1.0000
  O2          0.65774      0.04467      0.30412  1.0000
  O2          0.93610      0.60663      0.63642  1.0000
  O2          0.61559      0.67538      0.46878  1.0000
  O2          0.30994      0.93624      0.80432  1.0000
  O2          0.03450      0.37443      0.13806  1.0000
  O2          0.31674      0.37443      0.36234  1.0000
  O2          0.03660      0.67538      0.03162  1.0000
  O2          0.60311      0.93624      0.69608  1.0000
  O2          0.64734      0.60663      0.86398  1.0000
  O3          0.91849      0.30591      0.52583  1.0000
  O2          0.36375      0.04467      0.19628  1.0000
  O2          0.76762      0.30077      0.01180  1.0000
  O2          0.67994      0.46490      0.34340  1.0000
  O2          0.51191      0.21035      0.67799  1.0000
  O2          0.20839      0.68385      0.51136  1.0000
  O2          0.28272      0.51371      0.84496  1.0000
  O2          0.45658      0.76923      0.17796  1.0000
  O2          0.28947      0.76923      0.32244  1.0000
  O2          0.45227      0.68385      0.98904  1.0000
  O2          0.20780      0.51371      0.65544  1.0000
  O2          0.67525      0.21035      0.82241  1.0000
  O2          0.50997      0.30077      0.48860  1.0000
  O2          0.76177      0.46490      0.15700  1.0000
  O2          0.77746      0.53324      0.02893  1.0000
  O2          0.44757      0.24681      0.36239  1.0000
  O2          0.72888      0.19604      0.69483  1.0000
  O3          0.21098      0.45915      0.52312  1.0000
  O2          0.51167      0.72320      0.86491  1.0000
  O2          0.23952      0.78487      0.19481  1.0000
  O2          0.52216      0.78487      0.30559  1.0000
  O3          0.22499      0.45915      0.97728  1.0000
  O2          0.18834      0.72320      0.63549  1.0000
  O2          0.44398      0.19604      0.80557  1.0000
  O2          0.73259      0.53324      0.47147  1.0000
  O2          0.77606      0.24681      0.13801  1.0000
  O3          0.19977      0.29359      0.89264  1.0000
  O2          0.66572      0.90836      0.23189  1.0000
  O2          0.06631      0.74389      0.56434  1.0000
  O2          0.75652      0.67732      0.39687  1.0000
  O2          0.30179      0.07252      0.73200  1.0000
  O2          0.90705      0.23375      0.06471  1.0000
  O2          0.30351      0.23375      0.43569  1.0000
  O2          0.89762      0.67732      0.10353  1.0000
  O2          0.74755      0.07252      0.76840  1.0000
  O2          0.65440      0.74389      0.93606  1.0000
  O3          0.07064      0.29359      0.60776  1.0000
  O2          0.21945      0.90836      0.26851  1.0000
  O2          0.56574      0.54087      0.99123  1.0000
  O2          0.42791      0.02877      0.32372  1.0000
  O2          0.95107      0.39540      0.65649  1.0000
  O2          0.40106      0.44717      0.48999  1.0000
  O2          0.53943      0.94997      0.82359  1.0000
  O2          0.02022      0.58963      0.15840  1.0000
  O2          0.54622      0.58963      0.34200  1.0000
  O2          0.02292      0.44717      0.01041  1.0000
  O2          0.38735      0.94997      0.67681  1.0000
  O2          0.42115      0.39540      0.84391  1.0000
  O2          0.95195      0.54087      0.50917  1.0000
  O2          0.57767      0.02877      0.17668  1.0000
  O2          0.57173      0.16665      0.25020  1.0000
  O2          0.81431      0.39952      0.58337  1.0000
  O2          0.56202      0.39952      0.91703  1.0000
  O2          0.39476      0.81270      0.75020  1.0000
  O2          0.15810      0.58710      0.08489  1.0000
  O2          0.40582      0.58710      0.41551  1.0000
  F           0.44009      0.90337      0.25020  1.0000
  F           0.07092      0.49261      0.57795  1.0000
  F           0.39851      0.49261      0.92245  1.0000
  F           0.52584      0.07487      0.75020  1.0000
  F           0.89671      0.45472      0.08454  1.0000
  F           0.53482      0.45472      0.41586  1.0000
