data_cif

_audit_creation_method             'generated by GULP'

_symmetry_space_group_name_H-M     'P 1'
_symmetry_Int_Tables_number        1
_symmetry_cell_setting             triclinic

_cell_length_a                       12.0054
_cell_length_b                       11.9481
_cell_length_c                       29.4902
_cell_angle_alpha                   89.6659
_cell_angle_beta                    89.8246
_cell_angle_gamma                  120.2557

loop_
_atom_site_label
_atom_site_fract_x
_atom_site_fract_y
_atom_site_fract_z
_atom_site_occupancy
  Si          0.69960      0.37570      0.03389  1.0000
  Si          0.60357      0.31533      0.36809  1.0000
  Si          0.65377      0.28178      0.69940  1.0000
  Si          0.27996      0.61130      0.53369  1.0000
  Si          0.35574      0.66015      0.86692  1.0000
  Si          0.31148      0.69662      0.20118  1.0000
  Si          0.35863      0.69452      0.30213  1.0000
  Si          0.30379      0.61170      0.97004  1.0000
  Si          0.27584      0.66202      0.63436  1.0000
  Si          0.59825      0.28069      0.79987  1.0000
  Si          0.65981      0.37140      0.46816  1.0000
  Si          0.69369      0.31827      0.13420  1.0000
  Si          0.51616      0.39715      0.96929  1.0000
  Si          0.56358      0.10830      0.30170  1.0000
  Si          0.86587      0.45455      0.63453  1.0000
  Si          0.45453      0.57713      0.46875  1.0000
  Si          0.39582      0.87206      0.80115  1.0000
  Si          0.10272      0.52769      0.13611  1.0000
  Si          0.39967      0.52482      0.36741  1.0000
  Si          0.10415      0.58616      0.03499  1.0000
  Si          0.44641      0.87074      0.69961  1.0000
  Si          0.56225      0.45230      0.86532  1.0000
  Si          0.86829      0.40526      0.53296  1.0000
  Si          0.51875      0.10785      0.19986  1.0000
  Si          0.27701      0.37840      0.84910  1.0000
  Si          0.59136      0.89804      0.18751  1.0000
  Si          0.07871      0.68760      0.51911  1.0000
  Si          0.67879      0.59336      0.35190  1.0000
  Si          0.37520      0.08050      0.68517  1.0000
  Si          0.90242      0.30216      0.01821  1.0000
  Si          0.38239      0.29572      0.48399  1.0000
  Si          0.89272      0.59674      0.15006  1.0000
  Si          0.67670      0.08058      0.81492  1.0000
  Si          0.58496      0.68238      0.98342  1.0000
  Si          0.07356      0.38258      0.64886  1.0000
  Si          0.28255      0.89663      0.31482  1.0000
  Ge          0.25263      0.34452      0.94920  1.0000
  Si          0.63955      0.90579      0.28870  1.0000
  Si          0.06834      0.73458      0.61965  1.0000
  Si          0.73219      0.65370      0.45200  1.0000
  Si          0.31682      0.07208      0.78591  1.0000
  Si          0.90337      0.24820      0.11920  1.0000
  Si          0.32468      0.24618      0.38371  1.0000
  Si          0.90127      0.65937      0.04980  1.0000
  Si          0.72574      0.07235      0.71420  1.0000
  Si          0.64235      0.73437      0.88121  1.0000
  Si          0.06918      0.32831      0.54821  1.0000
  Si          0.23864      0.90553      0.21382  1.0000
  Si          0.96553      0.11907      0.96626  1.0000
  Ge          0.86162      0.84603      0.30065  1.0000
  Si          0.12883      0.01414      0.63432  1.0000
  Si          0.01276      0.86941      0.46822  1.0000
  Si          0.09958      0.13407      0.79920  1.0000
  Si          0.83689      0.96606      0.13357  1.0000
  Si          0.10719      0.96661      0.36732  1.0000
  Si          0.83330      0.87281      0.03243  1.0000
  Si          0.00429      0.13235      0.69906  1.0000
  Si          0.85960      0.01892      0.86665  1.0000
  Si          0.13279      0.11167      0.53359  1.0000
  Si          0.96142      0.84682      0.19792  1.0000
  O2          0.90793      0.99176      0.99850  1.0000
  O3          0.98924      0.93438      0.33567  1.0000
  O2          0.04657      0.05402      0.66620  1.0000
  O2          0.05473      0.99106      0.50068  1.0000
  O2          0.97966      0.05933      0.83325  1.0000
  O2          0.92131      0.92262      0.16248  1.0000
  O2          0.32048      0.57134      0.33541  1.0000
  O2          0.39784      0.74546      0.66737  1.0000
  O2          0.23063      0.66503      0.00241  1.0000
  O2          0.63786      0.40439      0.83239  1.0000
  O2          0.56934      0.23257      0.16660  1.0000
  O2          0.74327      0.33124      0.50059  1.0000
  O2          0.57932      0.33180      0.99992  1.0000
  O2          0.73941      0.40561      0.66662  1.0000
  O2          0.64065      0.23184      0.33468  1.0000
  O2          0.40457      0.65230      0.50137  1.0000
  O2          0.22730      0.57386      0.16846  1.0000
  O2          0.32012      0.74660      0.83438  1.0000
  O3          0.11481      0.19897      0.97055  1.0000
  O3          0.76323      0.90968      0.31027  1.0000
  O2          0.06650      0.85955      0.63995  1.0000
  O2          0.85812      0.77927      0.47254  1.0000
  O2          0.18919      0.06951      0.80562  1.0000
  O2          0.90183      0.12074      0.13939  1.0000
  O2          0.20011      0.12122      0.36329  1.0000
  O2          0.90066      0.78533      0.02947  1.0000
  O2          0.85037      0.07047      0.69369  1.0000
  O2          0.76700      0.86280      0.86160  1.0000
  O2          0.06921      0.20218      0.52813  1.0000
  O2          0.11549      0.90739      0.19233  1.0000
  O3          0.92321      0.87131      0.24678  1.0000
  O2          0.11742      0.05535      0.58384  1.0000
  O2          0.91041      0.06075      0.91670  1.0000
  O2          0.04188      0.11402      0.74928  1.0000
  O2          0.83910      0.92748      0.08209  1.0000
  O2          0.05534      0.92233      0.41790  1.0000
  O2          0.90352      0.20905      0.97906  1.0000
  O3          0.77464      0.68268      0.31206  1.0000
  O2          0.27985      0.08401      0.64698  1.0000
  O2          0.08089      0.78657      0.48081  1.0000
  O2          0.18764      0.28824      0.80748  1.0000
  O2          0.68795      0.89563      0.14951  1.0000
  O2          0.18369      0.89318      0.35308  1.0000
  O2          0.68187      0.78186      0.02064  1.0000
  O2          0.07448      0.28510      0.68735  1.0000
  O2          0.77501      0.08462      0.85329  1.0000
  O2          0.28519      0.19642      0.52255  1.0000
  O2          0.89069      0.69255      0.18878  1.0000
  O2          0.30589      0.63730      0.25171  1.0000
  O2          0.33516      0.66559      0.58420  1.0000
  O2          0.30354      0.66004      0.91776  1.0000
  O2          0.65536      0.33921      0.74960  1.0000
  O2          0.63789      0.31889      0.08396  1.0000
  O2          0.65909      0.31291      0.41828  1.0000
  O3          0.36448      0.30652      0.97421  1.0000
  O2          0.64947      0.03922      0.30536  1.0000
  O2          0.93516      0.61125      0.63778  1.0000
  O2          0.61092      0.66435      0.47119  1.0000
  O2          0.30830      0.94018      0.80491  1.0000
  O2          0.03355      0.37067      0.13875  1.0000
  O2          0.31328      0.36801      0.36534  1.0000
  O2          0.03615      0.67402      0.03226  1.0000
  O2          0.60249      0.93930      0.69675  1.0000
  O2          0.64754      0.60966      0.86303  1.0000
  O2          0.93714      0.31803      0.52974  1.0000
  O2          0.36294      0.03856      0.19603  1.0000
  O2          0.76786      0.30097      0.01216  1.0000
  O2          0.67887      0.45909      0.34586  1.0000
  O2          0.51041      0.21442      0.67762  1.0000
  O2          0.21223      0.68715      0.51166  1.0000
  O2          0.28194      0.51698      0.84480  1.0000
  O2          0.45611      0.76458      0.17976  1.0000
  O2          0.28197      0.76217      0.32324  1.0000
  O2          0.45118      0.68224      0.98887  1.0000
  O2          0.20706      0.51745      0.65659  1.0000
  O2          0.67311      0.21287      0.82243  1.0000
  O2          0.51693      0.29746      0.49126  1.0000
  O2          0.76003      0.46041      0.15766  1.0000
  O2          0.77759      0.53293      0.02919  1.0000
  O2          0.44818      0.24287      0.36402  1.0000
  O2          0.72629      0.19866      0.69441  1.0000
  O2          0.19654      0.45474      0.52883  1.0000
  O2          0.51083      0.72518      0.86442  1.0000
  O2          0.23861      0.77911      0.19512  1.0000
  O2          0.51377      0.77778      0.30809  1.0000
  O3          0.22396      0.45841      0.97733  1.0000
  O2          0.19435      0.73623      0.63939  1.0000
  O2          0.44199      0.19970      0.80513  1.0000
  O2          0.73493      0.52835      0.47137  1.0000
  O2          0.77487      0.24356      0.13815  1.0000
  O3          0.19950      0.29639      0.89242  1.0000
  O2          0.66182      0.90009      0.23452  1.0000
  O2          0.07298      0.75658      0.56544  1.0000
  O2          0.75118      0.67344      0.39747  1.0000
  O2          0.30025      0.07432      0.73164  1.0000
  O2          0.90767      0.23311      0.06499  1.0000
  O2          0.30712      0.22568      0.43801  1.0000
  O2          0.89623      0.67377      0.10412  1.0000
  O2          0.74650      0.07661      0.76841  1.0000
  O2          0.65361      0.74370      0.93533  1.0000
  O2          0.06952      0.30883      0.60248  1.0000
  O2          0.21405      0.90089      0.26804  1.0000
  O2          0.56581      0.54056      0.99082  1.0000
  O2          0.42061      0.02392      0.32382  1.0000
  O2          0.94803      0.39578      0.65785  1.0000
  O2          0.39688      0.43559      0.49250  1.0000
  O2          0.53762      0.95284      0.82389  1.0000
  O2          0.01866      0.58448      0.15923  1.0000
  O2          0.54010      0.58102      0.34359  1.0000
  O2          0.02244      0.44667      0.01081  1.0000
  O2          0.38991      0.95542      0.67654  1.0000
  O2          0.42114      0.39964      0.84352  1.0000
  O2          0.95341      0.54785      0.51020  1.0000
  O2          0.57891      0.02457      0.17865  1.0000
  O2          0.56744      0.16282      0.25070  1.0000
  O2          0.81383      0.40257      0.58377  1.0000
  O2          0.56278      0.40231      0.91644  1.0000
  O2          0.39285      0.81703      0.75060  1.0000
  O2          0.15713      0.58397      0.08551  1.0000
  O2          0.40136      0.57840      0.41819  1.0000
  F           0.43631      0.89794      0.25157  1.0000
  F           0.07536      0.53471      0.58439  1.0000
  F           0.39818      0.49387      0.92231  1.0000
  F           0.52436      0.07896      0.75090  1.0000
  F           0.89581      0.45267      0.08540  1.0000
  F           0.53206      0.44757      0.41820  1.0000
