data_cif

_audit_creation_method             'generated by GULP'

_symmetry_space_group_name_H-M     'P 1'
_symmetry_Int_Tables_number        1
_symmetry_cell_setting             triclinic

_cell_length_a                       11.9513
_cell_length_b                       11.9454
_cell_length_c                       29.5227
_cell_angle_alpha                   89.4173
_cell_angle_beta                    90.2913
_cell_angle_gamma                  119.9837

loop_
_atom_site_label
_atom_site_fract_x
_atom_site_fract_y
_atom_site_fract_z
_atom_site_occupancy
  Si          0.69960      0.37570      0.03389  1.0000
  Si          0.59532      0.31511      0.36794  1.0000
  Si          0.64922      0.28107      0.69937  1.0000
  Si          0.27039      0.60860      0.53366  1.0000
  Si          0.35324      0.65807      0.86606  1.0000
  Si          0.30303      0.69174      0.19891  1.0000
  Si          0.35324      0.69402      0.30169  1.0000
  Si          0.30301      0.61015      0.96884  1.0000
  Si          0.27040      0.66067      0.63409  1.0000
  Si          0.59532      0.27906      0.79981  1.0000
  Si          0.64921      0.36703      0.46838  1.0000
  Si          0.69966      0.32278      0.13387  1.0000
  Si          0.51505      0.39682      0.96901  1.0000
  Si          0.56036      0.10872      0.30247  1.0000
  Si          0.85970      0.45432      0.63457  1.0000
  Si          0.44240      0.57187      0.46865  1.0000
  Si          0.39304      0.87014      0.80047  1.0000
  Si          0.10324      0.52052      0.13415  1.0000
  Si          0.39304      0.52176      0.36727  1.0000
  Si          0.10321      0.58156      0.03359  1.0000
  Si          0.44241      0.86941      0.69909  1.0000
  Si          0.56035      0.45049      0.86529  1.0000
  Si          0.85969      0.40424      0.53319  1.0000
  Si          0.51508      0.11711      0.19875  1.0000
  Si          0.27435      0.37697      0.84881  1.0000
  Si          0.58523      0.90197      0.18487  1.0000
  Si          0.06876      0.68584      0.51874  1.0000
  Si          0.67416      0.59481      0.35302  1.0000
  Si          0.37084      0.07949      0.68495  1.0000
  Si          0.89984      0.29892      0.01741  1.0000
  Si          0.37083      0.29023      0.48280  1.0000
  Si          0.89988      0.59980      0.15034  1.0000
  Si          0.67416      0.07821      0.81473  1.0000
  Si          0.58521      0.68212      0.98289  1.0000
  Si          0.06877      0.38180      0.64901  1.0000
  Si          0.27435      0.89624      0.31894  1.0000
  Ge          0.24958      0.34218      0.94879  1.0000
  Si          0.64089      0.90750      0.28696  1.0000
  Si          0.06141      0.73347      0.61924  1.0000
  Si          0.72144      0.64907      0.45368  1.0000
  Si          0.31378      0.07070      0.78545  1.0000
  Si          0.90255      0.24314      0.11808  1.0000
  Si          0.31378      0.24193      0.38230  1.0000
  Si          0.90251      0.65824      0.04967  1.0000
  Si          0.72145      0.07125      0.71407  1.0000
  Si          0.64088      0.73224      0.88080  1.0000
  Si          0.06140      0.32681      0.54851  1.0000
  Ge          0.24960      0.90629      0.21896  1.0000
  Si          0.96315      0.11588      0.96653  1.0000
  Si          0.85744      0.84073      0.30083  1.0000
  Si          0.12309      0.01300      0.63421  1.0000
  Si          0.00026      0.86731      0.46859  1.0000
  Si          0.09620      0.13270      0.79934  1.0000
  Si          0.83302      0.96103      0.13457  1.0000
  Si          0.09620      0.96236      0.36841  1.0000
  Si          0.83300      0.87084      0.03318  1.0000
  Si          0.00027      0.13183      0.69916  1.0000
  Si          0.85744      0.01557      0.86692  1.0000
  Si          0.12308      0.10896      0.53354  1.0000
  Si          0.96318      0.84615      0.20122  1.0000
  O2          0.90782      0.99246      0.00050  1.0000
  O2          0.97798      0.91896      0.33397  1.0000
  O2          0.04226      0.05342      0.66642  1.0000
  O2          0.04225      0.98772      0.50133  1.0000
  O2          0.97798      0.05788      0.83378  1.0000
  O2          0.90783      0.91422      0.16725  1.0000
  O2          0.31725      0.57145      0.33437  1.0000
  O2          0.39354      0.74443      0.66682  1.0000
  O2          0.22871      0.66206      0.00104  1.0000
  O2          0.63557      0.40207      0.83246  1.0000
  O2          0.57814      0.24537      0.16765  1.0000
  O2          0.73388      0.32761      0.50097  1.0000
  O2          0.57807      0.33160      0.00012  1.0000
  O2          0.73389      0.40515      0.66679  1.0000
  O2          0.63558      0.23236      0.33530  1.0000
  O2          0.39352      0.64797      0.50092  1.0000
  O2          0.22875      0.56554      0.16670  1.0000
  O2          0.31726      0.74466      0.83337  1.0000
  O3          0.11294      0.19660      0.97016  1.0000
  O2          0.76516      0.90396      0.30673  1.0000
  O2          0.06035      0.85857      0.63954  1.0000
  O2          0.84622      0.77488      0.47448  1.0000
  O2          0.18634      0.06797      0.80540  1.0000
  O2          0.90108      0.11607      0.13867  1.0000
  O2          0.18635      0.11723      0.36234  1.0000
  O2          0.90103      0.78383      0.02908  1.0000
  O2          0.84623      0.07022      0.69327  1.0000
  O2          0.76516      0.86005      0.86102  1.0000
  O2          0.06034      0.20065      0.52822  1.0000
  O3          0.11297      0.91523      0.19760  1.0000
  O2          0.90704      0.85207      0.25039  1.0000
  O2          0.11053      0.05470      0.58388  1.0000
  O2          0.90704      0.05383      0.91736  1.0000
  O2          0.03695      0.11274      0.74952  1.0000
  O2          0.83797      0.91841      0.08388  1.0000
  O2          0.03695      0.92307      0.41823  1.0000
  O2          0.90040      0.20610      0.97811  1.0000
  O2          0.77257      0.68962      0.31435  1.0000
  O2          0.27469      0.08253      0.64654  1.0000
  O2          0.07058      0.78500      0.48025  1.0000
  O2          0.18406      0.28649      0.80736  1.0000
  O2          0.68165      0.89907      0.14748  1.0000
  O2          0.18406      0.89642      0.36040  1.0000
  O2          0.68162      0.78144      0.02028  1.0000
  O2          0.07059      0.28446      0.68750  1.0000
  O2          0.77256      0.08179      0.85340  1.0000
  O2          0.27468      0.19103      0.52121  1.0000
  O2          0.90045      0.69318      0.18965  1.0000
  O2          0.30107      0.64170      0.25110  1.0000
  O2          0.32817      0.66352      0.58387  1.0000
  O2          0.30107      0.65824      0.91664  1.0000
  O2          0.65118      0.33765      0.74958  1.0000
  O2          0.63930      0.31907      0.08388  1.0000
  O2          0.65118      0.31240      0.41817  1.0000
  O3          0.36328      0.30587      0.97380  1.0000
  O2          0.64588      0.03734      0.30491  1.0000
  O2          0.92876      0.61070      0.63759  1.0000
  O2          0.59878      0.65925      0.47145  1.0000
  O2          0.30542      0.93860      0.80415  1.0000
  O2          0.03525      0.36421      0.13662  1.0000
  O2          0.30542      0.36568      0.36359  1.0000
  O2          0.03521      0.66987      0.03112  1.0000
  O2          0.59879      0.93841      0.69629  1.0000
  O2          0.64588      0.60739      0.86285  1.0000
  O2          0.92875      0.31693      0.53017  1.0000
  O3          0.36331      0.05631      0.19395  1.0000
  O2          0.76611      0.30034      0.01115  1.0000
  O2          0.67055      0.45897      0.34564  1.0000
  O2          0.50541      0.21347      0.67740  1.0000
  O2          0.20240      0.68475      0.51136  1.0000
  O2          0.27904      0.51533      0.84393  1.0000
  O2          0.45082      0.76768      0.18002  1.0000
  O2          0.27904      0.76257      0.32382  1.0000
  O2          0.45080      0.68200      0.98773  1.0000
  O2          0.20241      0.51653      0.65639  1.0000
  O2          0.67055      0.21043      0.82212  1.0000
  O2          0.50540      0.29082      0.49035  1.0000
  O2          0.76616      0.46465      0.15661  1.0000
  O2          0.77670      0.53267      0.02973  1.0000
  O2          0.43898      0.24000      0.36296  1.0000
  O2          0.72216      0.19800      0.69440  1.0000
  O2          0.18824      0.45241      0.52890  1.0000
  O2          0.50864      0.72296      0.86377  1.0000
  O3          0.22294      0.76462      0.19124  1.0000
  O2          0.50863      0.78453      0.30397  1.0000
  O3          0.22292      0.45719      0.97651  1.0000
  O2          0.18825      0.73471      0.63884  1.0000
  O2          0.43898      0.19784      0.80479  1.0000
  O2          0.72215      0.52303      0.47336  1.0000
  O2          0.77675      0.24290      0.13804  1.0000
  O3          0.19670      0.29516      0.89199  1.0000
  O2          0.65352      0.90962      0.23291  1.0000
  O2          0.06389      0.75481      0.56504  1.0000
  O2          0.74347      0.66774      0.39953  1.0000
  O2          0.29601      0.07348      0.73123  1.0000
  O2          0.90340      0.22692      0.06388  1.0000
  O2          0.29600      0.22139      0.43652  1.0000
  O2          0.90341      0.67535      0.10387  1.0000
  O2          0.74347      0.07460      0.76822  1.0000
  O2          0.65351      0.74277      0.93484  1.0000
  O2          0.06389      0.30796      0.60272  1.0000
  O3          0.19672      0.90042      0.27576  1.0000
  O2          0.56555      0.54023      0.99027  1.0000
  O2          0.41867      0.01990      0.32451  1.0000
  O2          0.94331      0.39594      0.65776  1.0000
  O2          0.38513      0.42978      0.49166  1.0000
  O2          0.53522      0.95069      0.82333  1.0000
  O2          0.02137      0.57822      0.15800  1.0000
  O2          0.53522      0.58338      0.34441  1.0000
  O2          0.02132      0.44199      0.00975  1.0000
  O2          0.38515      0.95423      0.67609  1.0000
  O2          0.41866      0.39761      0.84325  1.0000
  O2          0.94329      0.54624      0.51000  1.0000
  O2          0.56557      0.02420      0.17748  1.0000
  O2          0.56172      0.15965      0.25138  1.0000
  O2          0.80627      0.40257      0.58388  1.0000
  O2          0.56171      0.40092      0.91638  1.0000
  O2          0.38978      0.81552      0.74995  1.0000
  O2          0.15773      0.57829      0.08387  1.0000
  O2          0.38978      0.57313      0.41779  1.0000
  F           0.39621      0.90270      0.24625  1.0000
  F           0.06829      0.53358      0.58388  1.0000
  F           0.39619      0.49237      0.92150  1.0000
  F           0.52052      0.07708      0.75023  1.0000
  F           0.89589      0.44737      0.08388  1.0000
  F           0.52052      0.44231      0.41752  1.0000
