data_cif

_audit_creation_method             'generated by GULP'

_symmetry_space_group_name_H-M     'P 1'
_symmetry_Int_Tables_number        1
_symmetry_cell_setting             triclinic

_cell_length_a                       11.9721
_cell_length_b                       11.9692
_cell_length_c                       29.4498
_cell_angle_alpha                   90.0611
_cell_angle_beta                    89.9087
_cell_angle_gamma                  119.9007

loop_
_atom_site_label
_atom_site_fract_x
_atom_site_fract_y
_atom_site_fract_z
_atom_site_occupancy
  Si          0.69960      0.37570      0.03389  1.0000
  Si          0.61483      0.31706      0.36758  1.0000
  Si          0.67150      0.29032      0.69945  1.0000
  Si          0.29197      0.61594      0.53258  1.0000
  Si          0.37304      0.66841      0.86521  1.0000
  Si          0.32109      0.69615      0.19904  1.0000
  Si          0.36850      0.69448      0.30042  1.0000
  Si          0.32260      0.62049      0.96649  1.0000
  Si          0.29268      0.67072      0.63344  1.0000
  Si          0.61510      0.28835      0.80008  1.0000
  Si          0.67200      0.37697      0.46769  1.0000
  Si          0.70241      0.31834      0.13402  1.0000
  Si          0.53155      0.41551      0.96745  1.0000
  Si          0.57344      0.10792      0.30160  1.0000
  Si          0.88181      0.46461      0.63479  1.0000
  Si          0.46526      0.58031      0.46714  1.0000
  Si          0.41165      0.87828      0.80004  1.0000
  Si          0.11270      0.52438      0.13353  1.0000
  Si          0.40962      0.52517      0.36562  1.0000
  Si          0.11267      0.58043      0.03202  1.0000
  Si          0.46593      0.88043      0.69829  1.0000
  Si          0.57743      0.46094      0.86537  1.0000
  Si          0.88127      0.41267      0.53298  1.0000
  Si          0.52888      0.10866      0.19953  1.0000
  Si          0.29576      0.38926      0.85230  1.0000
  Si          0.60021      0.89818      0.18675  1.0000
  Si          0.09009      0.69254      0.51887  1.0000
  Si          0.68887      0.59289      0.35075  1.0000
  Si          0.39389      0.08934      0.68424  1.0000
  Si          0.90173      0.30139      0.01700  1.0000
  Si          0.39363      0.30031      0.48288  1.0000
  Si          0.90418      0.59610      0.14958  1.0000
  Si          0.69175      0.08698      0.81464  1.0000
  Si          0.60067      0.69594      0.97967  1.0000
  Si          0.09120      0.39336      0.64820  1.0000
  Si          0.29306      0.89736      0.31387  1.0000
  Si          0.25343      0.34017      0.95358  1.0000
  Si          0.64887      0.90481      0.28794  1.0000
  Si          0.08336      0.74290      0.61958  1.0000
  Si          0.74382      0.65779      0.45088  1.0000
  Si          0.33476      0.08012      0.78494  1.0000
  Si          0.91133      0.24634      0.11709  1.0000
  Si          0.33541      0.24811      0.38233  1.0000
  Si          0.90977      0.65477      0.04907  1.0000
  Si          0.74410      0.08148      0.71393  1.0000
  Si          0.65407      0.74017      0.87857  1.0000
  Si          0.08282      0.33523      0.54751  1.0000
  Si          0.24998      0.90624      0.21268  1.0000
  Ge          0.97039      0.11840      0.96653  1.0000
  Ge          0.87145      0.84434      0.30072  1.0000
  Si          0.14640      0.02323      0.63376  1.0000
  Si          0.02423      0.87405      0.46782  1.0000
  Si          0.11734      0.14294      0.79963  1.0000
  Si          0.84646      0.96564      0.13365  1.0000
  Si          0.11853      0.96886      0.36695  1.0000
  Si          0.84583      0.87111      0.03269  1.0000
  Si          0.02508      0.14580      0.69870  1.0000
  Si          0.87226      0.01770      0.86363  1.0000
  Si          0.14544      0.11748      0.53296  1.0000
  Si          0.97243      0.84673      0.19787  1.0000
  O3          0.93311      0.99116      0.00178  1.0000
  O3          0.99723      0.93402      0.33652  1.0000
  O2          0.06646      0.06581      0.66598  1.0000
  O2          0.06535      0.99552      0.50055  1.0000
  O2          0.99216      0.05971      0.83001  1.0000
  O2          0.92998      0.92396      0.16411  1.0000
  O2          0.33055      0.57157      0.33325  1.0000
  O2          0.41665      0.75518      0.66570  1.0000
  O2          0.23790      0.65882      0.99947  1.0000
  O2          0.65305      0.41112      0.83285  1.0000
  O2          0.58015      0.23391      0.16698  1.0000
  O2          0.75555      0.33810      0.50070  1.0000
  O2          0.57797      0.33887      0.00082  1.0000
  O2          0.75622      0.41451      0.66725  1.0000
  O2          0.65118      0.23124      0.33470  1.0000
  O2          0.41517      0.65595      0.49970  1.0000
  O2          0.23850      0.57349      0.16587  1.0000
  O2          0.33426      0.75218      0.83214  1.0000
  O3          0.13299      0.21659      0.97524  1.0000
  O3          0.77231      0.90792      0.30969  1.0000
  O2          0.08316      0.86922      0.63960  1.0000
  O2          0.86942      0.78444      0.47099  1.0000
  O2          0.20825      0.07962      0.80507  1.0000
  O2          0.91134      0.12036      0.13741  1.0000
  O2          0.21114      0.12245      0.36208  1.0000
  O2          0.90813      0.77923      0.02906  1.0000
  O2          0.87073      0.08160      0.69408  1.0000
  O2          0.77929      0.86400      0.85710  1.0000
  O2          0.08169      0.20809      0.52761  1.0000
  O2          0.12609      0.90756      0.19114  1.0000
  O3          0.93641      0.86931      0.24743  1.0000
  O2          0.13314      0.06319      0.58325  1.0000
  O3          0.92989      0.05414      0.91319  1.0000
  O2          0.06955      0.13562      0.74871  1.0000
  O2          0.84928      0.92145      0.08305  1.0000
  O2          0.07044      0.92791      0.41795  1.0000
  O3          0.89493      0.20574      0.97734  1.0000
  O3          0.78473      0.68164      0.31116  1.0000
  O2          0.29787      0.09186      0.64581  1.0000
  O2          0.09140      0.79052      0.48065  1.0000
  O2          0.19719      0.29264      0.81415  1.0000
  O2          0.69751      0.89701      0.14876  1.0000
  O2          0.19402      0.89438      0.35204  1.0000
  O2          0.69641      0.79471      0.01774  1.0000
  O2          0.09319      0.29694      0.68648  1.0000
  O2          0.78971      0.08831      0.85313  1.0000
  O2          0.29715      0.20163      0.52120  1.0000
  O2          0.90278      0.69311      0.18808  1.0000
  O2          0.31624      0.63810      0.24962  1.0000
  O2          0.34928      0.67163      0.58295  1.0000
  O2          0.31910      0.67323      0.91572  1.0000
  O2          0.67203      0.34674      0.74992  1.0000
  O2          0.64295      0.31930      0.08429  1.0000
  O2          0.67162      0.31705      0.41787  1.0000
  O2          0.37630      0.32995      0.97082  1.0000
  O2          0.65901      0.03808      0.30496  1.0000
  O2          0.95087      0.62085      0.63803  1.0000
  O2          0.62148      0.66784      0.46964  1.0000
  O2          0.32437      0.94740      0.80311  1.0000
  O2          0.04364      0.36803      0.13589  1.0000
  O2          0.32358      0.36902      0.36349  1.0000
  O2          0.04253      0.66668      0.03005  1.0000
  O2          0.62216      0.94929      0.69528  1.0000
  O2          0.66354      0.61678      0.86110  1.0000
  O2          0.95012      0.32517      0.52942  1.0000
  O2          0.37305      0.03888      0.19506  1.0000
  O2          0.76723      0.30093      0.01124  1.0000
  O2          0.68960      0.45895      0.34478  1.0000
  O2          0.52845      0.22273      0.67701  1.0000
  O2          0.22327      0.69122      0.51080  1.0000
  O2          0.29718      0.52388      0.84399  1.0000
  O2          0.46595      0.76530      0.17806  1.0000
  O2          0.29213      0.76284      0.32165  1.0000
  O2          0.46698      0.69653      0.98768  1.0000
  O2          0.22481      0.52744      0.65571  1.0000
  O2          0.69035      0.22027      0.82247  1.0000
  O2          0.52906      0.30331      0.49034  1.0000
  O2          0.77157      0.46093      0.15703  1.0000
  O2          0.78237      0.53116      0.02964  1.0000
  O2          0.45942      0.24443      0.36304  1.0000
  O2          0.74548      0.20815      0.69446  1.0000
  O2          0.20921      0.45997      0.52769  1.0000
  O2          0.52847      0.74104      0.85939  1.0000
  O2          0.24873      0.77946      0.19340  1.0000
  O2          0.52336      0.77744      0.30674  1.0000
  O2          0.25076      0.46543      0.97250  1.0000
  O2          0.21010      0.74419      0.63883  1.0000
  O2          0.45924      0.20634      0.80478  1.0000
  O2          0.74655      0.53332      0.47065  1.0000
  O2          0.78398      0.24349      0.13680  1.0000
  O2          0.22636      0.31798      0.89929  1.0000
  O2          0.67116      0.89934      0.23369  1.0000
  O2          0.08544      0.76256      0.56529  1.0000
  O2          0.76178      0.67457      0.39625  1.0000
  O2          0.31832      0.08336      0.73060  1.0000
  O2          0.91071      0.22851      0.06246  1.0000
  O2          0.31858      0.23011      0.43669  1.0000
  O2          0.90875      0.67142      0.10346  1.0000
  O2          0.76246      0.08274      0.76829  1.0000
  O2          0.67377      0.76451      0.93280  1.0000
  O2          0.08574      0.31818      0.60180  1.0000
  O2          0.22513      0.90219      0.26690  1.0000
  O2          0.58965      0.55824      0.98921  1.0000
  O2          0.43078      0.02362      0.32348  1.0000
  O2          0.96602      0.40735      0.65762  1.0000
  O2          0.40825      0.44016      0.49104  1.0000
  O2          0.55235      0.96181      0.82342  1.0000
  O2          0.02916      0.58094      0.15767  1.0000
  O2          0.54990      0.58041      0.34193  1.0000
  O2          0.02787      0.44039      0.00827  1.0000
  O2          0.40871      0.96446      0.67519  1.0000
  O2          0.43442      0.40116      0.84365  1.0000
  O2          0.96461      0.55375      0.50995  1.0000
  O2          0.58904      0.02530      0.17806  1.0000
  O2          0.57659      0.16242      0.25072  1.0000
  O2          0.82843      0.41202      0.58394  1.0000
  O2          0.58267      0.41221      0.91650  1.0000
  O2          0.41258      0.82642      0.74904  1.0000
  O2          0.16573      0.57860      0.08273  1.0000
  O2          0.41124      0.57977      0.41640  1.0000
  F           0.44660      0.89877      0.25025  1.0000
  F           0.08967      0.54222      0.58353  1.0000
  F           0.44919      0.54267      0.91615  1.0000
  F           0.54299      0.08780      0.74954  1.0000
  F           0.90424      0.44690      0.08315  1.0000
  F           0.54360      0.45033      0.41658  1.0000
