data_cif

_audit_creation_method             'generated by GULP'

_symmetry_space_group_name_H-M     'P 1'
_symmetry_Int_Tables_number        1
_symmetry_cell_setting             triclinic

_cell_length_a                       11.9874
_cell_length_b                       11.9673
_cell_length_c                       29.4882
_cell_angle_alpha                   89.6216
_cell_angle_beta                    89.8862
_cell_angle_gamma                  120.2569

loop_
_atom_site_label
_atom_site_fract_x
_atom_site_fract_y
_atom_site_fract_z
_atom_site_occupancy
  Si          0.69960      0.37570      0.03389  1.0000
  Si          0.60150      0.31574      0.36623  1.0000
  Si          0.65245      0.28090      0.69952  1.0000
  Si          0.28147      0.61637      0.53381  1.0000
  Si          0.35565      0.66162      0.86763  1.0000
  Si          0.30971      0.69689      0.20151  1.0000
  Si          0.36312      0.69673      0.30207  1.0000
  Si          0.30463      0.61228      0.97072  1.0000
  Si          0.27584      0.66137      0.63487  1.0000
  Si          0.59789      0.28176      0.80001  1.0000
  Si          0.65997      0.37042      0.46629  1.0000
  Si          0.69161      0.31751      0.13417  1.0000
  Si          0.51723      0.39884      0.96928  1.0000
  Si          0.56719      0.10799      0.30080  1.0000
  Si          0.86418      0.45303      0.63411  1.0000
  Si          0.45215      0.57676      0.46880  1.0000
  Si          0.39487      0.87319      0.80190  1.0000
  Si          0.10045      0.52643      0.13681  1.0000
  Si          0.39823      0.52289      0.36744  1.0000
  Si          0.10435      0.58545      0.03568  1.0000
  Si          0.44489      0.86987      0.70038  1.0000
  Si          0.56308      0.45436      0.86536  1.0000
  Si          0.86748      0.40998      0.53229  1.0000
  Si          0.51595      0.10676      0.19920  1.0000
  Si          0.27734      0.38071      0.84959  1.0000
  Si          0.58834      0.89833      0.18600  1.0000
  Si          0.07944      0.69233      0.51987  1.0000
  Si          0.67866      0.59545      0.35125  1.0000
  Si          0.37364      0.07926      0.68544  1.0000
  Si          0.90239      0.30195      0.01881  1.0000
  Si          0.38445      0.29694      0.48331  1.0000
  Si          0.89028      0.59576      0.15020  1.0000
  Si          0.67620      0.08172      0.81558  1.0000
  Si          0.58647      0.68351      0.98393  1.0000
  Si          0.07333      0.38107      0.64776  1.0000
  Si          0.28634      0.89792      0.31518  1.0000
  Ge          0.25284      0.34554      0.94963  1.0000
  Si          0.64477      0.90697      0.28670  1.0000
  Si          0.06755      0.73322      0.62088  1.0000
  Si          0.72905      0.65061      0.45175  1.0000
  Si          0.31605      0.07298      0.78617  1.0000
  Si          0.90164      0.24712      0.11983  1.0000
  Si          0.32047      0.24342      0.38351  1.0000
  Si          0.90124      0.65886      0.04989  1.0000
  Si          0.72438      0.07203      0.71490  1.0000
  Si          0.64286      0.73567      0.88165  1.0000
  Si          0.06957      0.33436      0.54666  1.0000
  Si          0.23617      0.90512      0.21466  1.0000
  Si          0.96590      0.11931      0.96701  1.0000
  Si          0.86194      0.84475      0.30040  1.0000
  Si          0.12496      0.00987      0.63576  1.0000
  Si          0.00861      0.86714      0.46658  1.0000
  Si          0.09947      0.13647      0.79996  1.0000
  Si          0.83548      0.96524      0.13429  1.0000
  Si          0.10396      0.96261      0.36572  1.0000
  Si          0.83512      0.87310      0.03317  1.0000
  Si          0.00307      0.13212      0.69969  1.0000
  Si          0.85935      0.02012      0.86741  1.0000
  Ge          0.13141      0.11308      0.53294  1.0000
  Si          0.95613      0.84311      0.19968  1.0000
  O2          0.90948      0.99301      0.99966  1.0000
  O2          0.98503      0.92393      0.33222  1.0000
  O2          0.04479      0.05086      0.66842  1.0000
  O3          0.04430      0.98984      0.49614  1.0000
  O2          0.98033      0.06168      0.83434  1.0000
  O2          0.91591      0.92169      0.16574  1.0000
  O2          0.32259      0.57296      0.33516  1.0000
  O2          0.39702      0.74424      0.66842  1.0000
  O2          0.23134      0.66478      0.00334  1.0000
  O2          0.63792      0.40590      0.83226  1.0000
  O2          0.56625      0.23194      0.16623  1.0000
  O2          0.74497      0.33298      0.49899  1.0000
  O2          0.57980      0.33241      0.99966  1.0000
  O2          0.73803      0.40372      0.66642  1.0000
  O2          0.64113      0.23381      0.33302  1.0000
  O2          0.40534      0.65510      0.50118  1.0000
  O2          0.22462      0.57306      0.16949  1.0000
  O2          0.31961      0.74820      0.83532  1.0000
  O3          0.11548      0.19954      0.97091  1.0000
  O2          0.77183      0.90844      0.30657  1.0000
  O2          0.06517      0.85593      0.64271  1.0000
  O2          0.85487      0.77412      0.47242  1.0000
  O2          0.18876      0.07135      0.80584  1.0000
  O2          0.90042      0.11977      0.13988  1.0000
  O2          0.19384      0.11809      0.36328  1.0000
  O2          0.90159      0.78499      0.02934  1.0000
  O2          0.84900      0.07042      0.69422  1.0000
  O2          0.76706      0.86431      0.86196  1.0000
  O3          0.06670      0.21130      0.52497  1.0000
  O2          0.11066      0.90602      0.19461  1.0000
  O2          0.91426      0.85855      0.24965  1.0000
  O3          0.10486      0.04462      0.58582  1.0000
  O2          0.90925      0.06019      0.91768  1.0000
  O2          0.04037      0.11785      0.75037  1.0000
  O2          0.84384      0.92606      0.08335  1.0000
  O2          0.04687      0.91275      0.41516  1.0000
  O2          0.90385      0.20909      0.97975  1.0000
  O2          0.77748      0.69241      0.31263  1.0000
  O2          0.27776      0.08186      0.64707  1.0000
  O2          0.08351      0.79237      0.48171  1.0000
  O2          0.18782      0.29040      0.80806  1.0000
  O2          0.68446      0.89588      0.14771  1.0000
  O2          0.18796      0.89616      0.35333  1.0000
  O2          0.68330      0.78287      0.02129  1.0000
  O2          0.07415      0.28346      0.68611  1.0000
  O2          0.77465      0.08585      0.85405  1.0000
  O3          0.29474      0.20089      0.52315  1.0000
  O2          0.88690      0.69070      0.18878  1.0000
  O2          0.30747      0.63913      0.25197  1.0000
  O2          0.33645      0.66804      0.58462  1.0000
  O2          0.30360      0.66092      0.91853  1.0000
  O2          0.65445      0.33918      0.74958  1.0000
  O2          0.63670      0.31835      0.08376  1.0000
  O2          0.66022      0.31474      0.41602  1.0000
  O3          0.36540      0.30805      0.97432  1.0000
  O2          0.65482      0.03969      0.30460  1.0000
  O2          0.93419      0.60917      0.63831  1.0000
  O2          0.60864      0.66269      0.47087  1.0000
  O2          0.30735      0.94140      0.80548  1.0000
  O2          0.03159      0.36969      0.13953  1.0000
  O2          0.31052      0.36614      0.36504  1.0000
  O2          0.03640      0.67325      0.03274  1.0000
  O2          0.60122      0.93877      0.69761  1.0000
  O2          0.64836      0.61156      0.86316  1.0000
  O2          0.93701      0.32443      0.52927  1.0000
  O2          0.35963      0.03816      0.19628  1.0000
  O2          0.76794      0.30102      0.01229  1.0000
  O2          0.67557      0.46003      0.34394  1.0000
  O2          0.50883      0.21312      0.67768  1.0000
  O2          0.21390      0.69312      0.51244  1.0000
  O2          0.28180      0.51886      0.84535  1.0000
  O2          0.45341      0.76423      0.17916  1.0000
  O2          0.28748      0.76471      0.32380  1.0000
  O2          0.45237      0.68307      0.98942  1.0000
  O2          0.20649      0.51602      0.65624  1.0000
  O2          0.67281      0.21407      0.82271  1.0000
  O2          0.51766      0.29532      0.48934  1.0000
  O2          0.75750      0.45944      0.15753  1.0000
  O2          0.77768      0.53271      0.02914  1.0000
  O2          0.44499      0.24124      0.36359  1.0000
  O2          0.72511      0.19800      0.69487  1.0000
  O2          0.19800      0.46092      0.52797  1.0000
  O2          0.51094      0.72652      0.86507  1.0000
  O2          0.23613      0.77898      0.19579  1.0000
  O2          0.51945      0.77982      0.30684  1.0000
  O3          0.22466      0.45914      0.97794  1.0000
  O2          0.19379      0.73463      0.64037  1.0000
  O2          0.44145      0.20075      0.80523  1.0000
  O2          0.73290      0.52622      0.47081  1.0000
  O2          0.77291      0.24284      0.13856  1.0000
  O3          0.19968      0.29832      0.89284  1.0000
  O2          0.66262      0.90427      0.23249  1.0000
  O2          0.07384      0.75956      0.56672  1.0000
  O2          0.74819      0.66962      0.39746  1.0000
  O2          0.29888      0.07396      0.73188  1.0000
  O2          0.90652      0.23240      0.06564  1.0000
  O2          0.30254      0.22366      0.43809  1.0000
  O2          0.89491      0.67292      0.10418  1.0000
  O2          0.74570      0.07702      0.76911  1.0000
  O2          0.65488      0.74475      0.93578  1.0000
  O2          0.07276      0.31067      0.60094  1.0000
  O2          0.21609      0.90212      0.26892  1.0000
  O2          0.56730      0.54180      0.99110  1.0000
  O2          0.42537      0.02431      0.32389  1.0000
  O2          0.94613      0.39217      0.65619  1.0000
  O2          0.39615      0.43550      0.49241  1.0000
  O2          0.53689      0.95434      0.82463  1.0000
  O2          0.01628      0.58348      0.15962  1.0000
  O2          0.53880      0.58049      0.34346  1.0000
  O2          0.02296      0.44609      0.01153  1.0000
  O2          0.38850      0.95432      0.67703  1.0000
  O2          0.42160      0.40203      0.84373  1.0000
  O2          0.95311      0.55374      0.51052  1.0000
  O2          0.57356      0.02300      0.17662  1.0000
  O2          0.56889      0.16104      0.24978  1.0000
  O2          0.81150      0.40521      0.58305  1.0000
  O2          0.56401      0.40448      0.91644  1.0000
  O2          0.39148      0.81736      0.75147  1.0000
  O2          0.15629      0.58285      0.08635  1.0000
  O2          0.39849      0.57622      0.41812  1.0000
  F           0.43742      0.89889      0.25114  1.0000
  F           0.07568      0.53662      0.58417  1.0000
  F           0.39879      0.49545      0.92267  1.0000
  F           0.52312      0.07903      0.75128  1.0000
  F           0.89464      0.45167      0.08566  1.0000
  F           0.52687      0.44309      0.41809  1.0000
