data_cif

_audit_creation_method             'generated by GULP'

_symmetry_space_group_name_H-M     'P 1'
_symmetry_Int_Tables_number        1
_symmetry_cell_setting             triclinic

_cell_length_a                       11.9721
_cell_length_b                       11.9872
_cell_length_c                       29.4448
_cell_angle_alpha                   90.1737
_cell_angle_beta                    89.9131
_cell_angle_gamma                  120.0417

loop_
_atom_site_label
_atom_site_fract_x
_atom_site_fract_y
_atom_site_fract_z
_atom_site_occupancy
  Si          0.69960      0.37570      0.03389  1.0000
  Si          0.61382      0.31658      0.36709  1.0000
  Si          0.66925      0.28663      0.69958  1.0000
  Si          0.28939      0.61176      0.53327  1.0000
  Si          0.37086      0.66678      0.86577  1.0000
  Si          0.32189      0.69176      0.20012  1.0000
  Si          0.37086      0.69339      0.30154  1.0000
  Si          0.32189      0.61943      0.96718  1.0000
  Si          0.28939      0.66694      0.63403  1.0000
  Si          0.61383      0.28655      0.80022  1.0000
  Si          0.66925      0.37194      0.46773  1.0000
  Si          0.69961      0.31319      0.13342  1.0000
  Si          0.53133      0.41502      0.96719  1.0000
  Si          0.57616      0.10556      0.30222  1.0000
  Si          0.87888      0.46026      0.63457  1.0000
  Si          0.46262      0.57505      0.46819  1.0000
  Si          0.40923      0.87650      0.80088  1.0000
  Si          0.11305      0.52175      0.13425  1.0000
  Si          0.40923      0.52204      0.36643  1.0000
  Si          0.11304      0.58060      0.03306  1.0000
  Si          0.46262      0.87688      0.69911  1.0000
  Si          0.57616      0.45991      0.86509  1.0000
  Si          0.87888      0.40794      0.53274  1.0000
  Si          0.53134      0.10561      0.20012  1.0000
  Si          0.29411      0.38811      0.85250  1.0000
  Si          0.60066      0.89486      0.18772  1.0000
  Si          0.08802      0.68819      0.51888  1.0000
  Si          0.69005      0.59381      0.35206  1.0000
  Si          0.39086      0.08535      0.68481  1.0000
  Si          0.90225      0.30206      0.01625  1.0000
  Si          0.39086      0.29482      0.48249  1.0000
  Si          0.90225      0.58948      0.15106  1.0000
  Si          0.69006      0.08556      0.81525  1.0000
  Si          0.60066      0.69510      0.97958  1.0000
  Si          0.08802      0.38915      0.64843  1.0000
  Si          0.29411      0.89530      0.31481  1.0000
  Si          0.25280      0.33937      0.95379  1.0000
  Si          0.65239      0.90287      0.28886  1.0000
  Si          0.08029      0.73887      0.61960  1.0000
  Si          0.74145      0.65259      0.45279  1.0000
  Si          0.33269      0.07803      0.78554  1.0000
  Si          0.91042      0.24498      0.11614  1.0000
  Si          0.33269      0.24397      0.38177  1.0000
  Si          0.91041      0.65472      0.05117  1.0000
  Si          0.74145      0.07818      0.71451  1.0000
  Si          0.65239      0.73882      0.87845  1.0000
  Si          0.08029      0.33073      0.54771  1.0000
  Si          0.25280      0.90273      0.21352  1.0000
  Ge          0.96961      0.11696      0.96688  1.0000
  Si          0.87051      0.84348      0.30330  1.0000
  Si          0.14329      0.01915      0.63407  1.0000
  Si          0.02233      0.86960      0.46832  1.0000
  Si          0.11566      0.14131      0.79994  1.0000
  Si          0.84616      0.96537      0.13407  1.0000
  Si          0.11566      0.96365      0.36736  1.0000
  Si          0.84615      0.87008      0.03324  1.0000
  Si          0.02233      0.14204      0.69899  1.0000
  Si          0.87051      0.01633      0.86401  1.0000
  Si          0.14329      0.11345      0.53324  1.0000
  Ge          0.96961      0.84194      0.20042  1.0000
  O3          0.93339      0.99092      0.00256  1.0000
  O2          0.99060      0.92103      0.33685  1.0000
  O2          0.06311      0.06155      0.66626  1.0000
  O2          0.06311      0.99087      0.50104  1.0000
  O2          0.99060      0.05888      0.83045  1.0000
  O3          0.93339      0.93175      0.16474  1.0000
  O2          0.33176      0.57037      0.33425  1.0000
  O2          0.41299      0.75129      0.66662  1.0000
  O2          0.23850      0.65871      0.00047  1.0000
  O2          0.65189      0.41022      0.83260  1.0000
  O2          0.57888      0.22875      0.16691  1.0000
  O2          0.75320      0.33254      0.50029  1.0000
  O2          0.57887      0.33942      0.00040  1.0000
  O2          0.75320      0.40997      0.66702  1.0000
  O2          0.65189      0.23098      0.33471  1.0000
  O2          0.41299      0.65102      0.50068  1.0000
  O2          0.23851      0.56910      0.16684  1.0000
  O2          0.33176      0.75071      0.83306  1.0000
  O3          0.13253      0.21550      0.97546  1.0000
  O2          0.77717      0.90364      0.31049  1.0000
  O2          0.07958      0.86503      0.63948  1.0000
  O2          0.86772      0.77945      0.47265  1.0000
  O2          0.20655      0.07824      0.80567  1.0000
  O2          0.90933      0.11966      0.13649  1.0000
  O2          0.20654      0.11761      0.36164  1.0000
  O2          0.90932      0.77895      0.03081  1.0000
  O2          0.86772      0.07758      0.69466  1.0000
  O2          0.77717      0.86284      0.85682  1.0000
  O2          0.07958      0.20386      0.52783  1.0000
  O3          0.13253      0.90633      0.19185  1.0000
  O3          0.92748      0.86610      0.25353  1.0000
  O2          0.13139      0.06035      0.58365  1.0000
  O3          0.92750      0.05070      0.91378  1.0000
  O2          0.06782      0.13275      0.74893  1.0000
  O2          0.84701      0.91816      0.08365  1.0000
  O2          0.06781      0.92437      0.41837  1.0000
  O3          0.89556      0.20619      0.97667  1.0000
  O2          0.78835      0.69032      0.31356  1.0000
  O2          0.29471      0.08748      0.64638  1.0000
  O2          0.09010      0.78644      0.48064  1.0000
  O2          0.19542      0.29126      0.81428  1.0000
  O2          0.69723      0.89274      0.14978  1.0000
  O2          0.19542      0.89347      0.35303  1.0000
  O2          0.69723      0.79379      0.01753  1.0000
  O2          0.09010      0.29298      0.68666  1.0000
  O2          0.78835      0.08733      0.85375  1.0000
  O2          0.29471      0.19655      0.52092  1.0000
  O3          0.89556      0.67866      0.19063  1.0000
  O2          0.31771      0.63541      0.25088  1.0000
  O2          0.34670      0.66801      0.58365  1.0000
  O2          0.31771      0.67160      0.91643  1.0000
  O2          0.67061      0.34399      0.74999  1.0000
  O2          0.64068      0.31498      0.08365  1.0000
  O2          0.67061      0.31593      0.41732  1.0000
  O2          0.37593      0.32935      0.97087  1.0000
  O2          0.66210      0.03565      0.30645  1.0000
  O2          0.94768      0.61644      0.63789  1.0000
  O2          0.61899      0.66260      0.47124  1.0000
  O2          0.32210      0.94563      0.80392  1.0000
  O2          0.04308      0.36554      0.13553  1.0000
  O2          0.32210      0.36579      0.36339  1.0000
  O2          0.04307      0.66683      0.03178  1.0000
  O2          0.61899      0.94570      0.69607  1.0000
  O2          0.66210      0.61576      0.86086  1.0000
  O2          0.94768      0.32055      0.52942  1.0000
  O2          0.37593      0.03588      0.19644  1.0000
  O2          0.76853      0.30311      0.01062  1.0000
  O2          0.68911      0.45938      0.34445  1.0000
  O2          0.52569      0.21852      0.67737  1.0000
  O2          0.22145      0.68711      0.51115  1.0000
  O2          0.29479      0.52224      0.84443  1.0000
  O2          0.46698      0.76088      0.17929  1.0000
  O2          0.29479      0.76186      0.32288  1.0000
  O2          0.46697      0.69539      0.98802  1.0000
  O2          0.22145      0.52365      0.65616  1.0000
  O2          0.68911      0.21904      0.82286  1.0000
  O2          0.52569      0.29648      0.48994  1.0000
  O2          0.76854      0.45471      0.15669  1.0000
  O2          0.78183      0.53150      0.03175  1.0000
  O2          0.45780      0.24249      0.36217  1.0000
  O2          0.74303      0.20443      0.69478  1.0000
  O2          0.20690      0.45580      0.52816  1.0000
  O2          0.52632      0.73927      0.85957  1.0000
  O2          0.25014      0.77509      0.19431  1.0000
  O2          0.52632      0.77636      0.30774  1.0000
  O2          0.25014      0.46435      0.97300  1.0000
  O2          0.20690      0.74041      0.63915  1.0000
  O2          0.45780      0.20462      0.80513  1.0000
  O2          0.74302      0.52791      0.47253  1.0000
  O2          0.78184      0.23962      0.13556  1.0000
  O2          0.22500      0.31677      0.89951  1.0000
  O2          0.67295      0.89864      0.23466  1.0000
  O2          0.08280      0.75812      0.56529  1.0000
  O2          0.76040      0.66908      0.39842  1.0000
  O2          0.31566      0.08009      0.73119  1.0000
  O2          0.91083      0.22852      0.06147  1.0000
  O2          0.31566      0.22488      0.43612  1.0000
  O2          0.91083      0.67160      0.10584  1.0000
  O2          0.76040      0.08063      0.76889  1.0000
  O2          0.67295      0.76362      0.93265  1.0000
  O2          0.08279      0.31399      0.60202  1.0000
  O2          0.22500      0.89753      0.26780  1.0000
  O2          0.59020      0.55782      0.98893  1.0000
  O2          0.43277      0.02189      0.32379  1.0000
  O2          0.96270      0.40300      0.65756  1.0000
  O2          0.40523      0.43420      0.49139  1.0000
  O2          0.55033      0.96057      0.82419  1.0000
  O2          0.02851      0.57621      0.15889  1.0000
  O2          0.55033      0.57907      0.34312  1.0000
  O2          0.02850      0.44159      0.00841  1.0000
  O2          0.40523      0.96034      0.67592  1.0000
  O2          0.43277      0.40019      0.84352  1.0000
  O2          0.96270      0.54901      0.50975  1.0000
  O2          0.59020      0.02167      0.17837  1.0000
  O2          0.58175      0.15971      0.25114  1.0000
  O2          0.82572      0.40752      0.58365  1.0000
  O2          0.58174      0.41133      0.91617  1.0000
  O2          0.40952      0.82377      0.74994  1.0000
  O2          0.16645      0.57788      0.08365  1.0000
  O2          0.40952      0.57506      0.41737  1.0000
  F           0.44799      0.89611      0.25106  1.0000
  F           0.08725      0.53828      0.58365  1.0000
  F           0.44799      0.54118      0.91625  1.0000
  F           0.54069      0.08512      0.75013  1.0000
  F           0.90462      0.44695      0.08365  1.0000
  F           0.54068      0.44488      0.41717  1.0000
