data_cif

_audit_creation_method             'generated by GULP'

_symmetry_space_group_name_H-M     'P 1'
_symmetry_Int_Tables_number        1
_symmetry_cell_setting             triclinic

_cell_length_a                       11.9534
_cell_length_b                       11.9890
_cell_length_c                       29.4502
_cell_angle_alpha                   90.0262
_cell_angle_beta                    89.9474
_cell_angle_gamma                  119.9018

loop_
_atom_site_label
_atom_site_fract_x
_atom_site_fract_y
_atom_site_fract_z
_atom_site_occupancy
  Si          0.69960      0.37570      0.03389  1.0000
  Si          0.61285      0.31757      0.36568  1.0000
  Si          0.67013      0.28897      0.69952  1.0000
  Si          0.29330      0.62099      0.53253  1.0000
  Si          0.37289      0.66970      0.86588  1.0000
  Si          0.31932      0.69660      0.19937  1.0000
  Si          0.37298      0.69660      0.30033  1.0000
  Si          0.32339      0.62099      0.96716  1.0000
  Si          0.29252      0.66970      0.63381  1.0000
  Si          0.61454      0.28897      0.80017  1.0000
  Si          0.67180      0.37570      0.46580  1.0000
  Si          0.70042      0.31757      0.13401  1.0000
  Si          0.53257      0.41700      0.96749  1.0000
  Si          0.57714      0.10758      0.30075  1.0000
  Si          0.88005      0.46258      0.63428  1.0000
  Si          0.46264      0.57983      0.46704  1.0000
  Si          0.41045      0.87904      0.80072  1.0000
  Si          0.11060      0.52328      0.13416  1.0000
  Si          0.40838      0.52328      0.36553  1.0000
  Si          0.11289      0.57983      0.03265  1.0000
  Si          0.46429      0.87904      0.69898  1.0000
  Si          0.57823      0.46258      0.86542  1.0000
  Si          0.88014      0.41700      0.53220  1.0000
  Si          0.52614      0.10758      0.19894  1.0000
  Si          0.29608      0.39128      0.85285  1.0000
  Si          0.59735      0.89854      0.18529  1.0000
  Si          0.09050      0.69698      0.51948  1.0000
  Si          0.68905      0.59516      0.35003  1.0000
  Si          0.39233      0.08763      0.68444  1.0000
  Si          0.90180      0.30129      0.01754  1.0000
  Si          0.39519      0.30129      0.48215  1.0000
  Si          0.90181      0.59516      0.14966  1.0000
  Si          0.69101      0.08763      0.81525  1.0000
  Si          0.60219      0.69698      0.98021  1.0000
  Si          0.09090      0.39128      0.64685  1.0000
  Si          0.29690      0.89854      0.31441  1.0000
  Si          0.25373      0.34114      0.95402  1.0000
  Si          0.65416      0.90593      0.28598  1.0000
  Si          0.08240      0.74110      0.62069  1.0000
  Si          0.74033      0.65434      0.45058  1.0000
  Si          0.33376      0.08064      0.78511  1.0000
  Si          0.90983      0.24538      0.11767  1.0000
  Si          0.33125      0.24538      0.38203  1.0000
  Si          0.90971      0.65433      0.04912  1.0000
  Si          0.74258      0.08064      0.71458  1.0000
  Si          0.65441      0.74110      0.87900  1.0000
  Si          0.08311      0.34114      0.54567  1.0000
  Si          0.24747      0.90593      0.21371  1.0000
  Ge          0.97067      0.11858      0.96728  1.0000
  Si          0.87192      0.84328      0.30025  1.0000
  Si          0.14248      0.01857      0.63530  1.0000
  Si          0.01951      0.87150      0.46628  1.0000
  Si          0.11712      0.14523      0.80038  1.0000
  Si          0.84516      0.96484      0.13429  1.0000
  Si          0.11538      0.96484      0.36541  1.0000
  Si          0.84769      0.87150      0.03342  1.0000
  Si          0.02381      0.14523      0.69932  1.0000
  Si          0.87180      0.01857      0.86440  1.0000
  Ge          0.14362      0.11858      0.53242  1.0000
  Si          0.96707      0.84328      0.19945  1.0000
  O3          0.93477      0.99281      0.00307  1.0000
  O2          0.99375      0.92306      0.33272  1.0000
  O2          0.06482      0.06190      0.66853  1.0000
  O3          0.05374      0.99281      0.49663  1.0000
  O2          0.99278      0.06190      0.83116  1.0000
  O2          0.92501      0.92306      0.16698  1.0000
  O2          0.33272      0.57302      0.33289  1.0000
  O2          0.41563      0.75345      0.66666  1.0000
  O2          0.23867      0.65874      0.00035  1.0000
  O2          0.65300      0.41216      0.83269  1.0000
  O2          0.57713      0.23323      0.16666  1.0000
  O2          0.75678      0.33943      0.49908  1.0000
  O2          0.57835      0.33943      0.00061  1.0000
  O2          0.75486      0.41216      0.66700  1.0000
  O2          0.65180      0.23323      0.33304  1.0000
  O2          0.41577      0.65874      0.49934  1.0000
  O2          0.23600      0.57302      0.16681  1.0000
  O2          0.33352      0.75345      0.83304  1.0000
  O3          0.13360      0.21718      0.97561  1.0000
  O2          0.78094      0.90655      0.30602  1.0000
  O2          0.08162      0.86518      0.64225  1.0000
  O2          0.86565      0.77897      0.47082  1.0000
  O2          0.20752      0.08112      0.80512  1.0000
  O2          0.91014      0.11941      0.13778  1.0000
  O2          0.20497      0.11941      0.36191  1.0000
  O2          0.90902      0.77897      0.02888  1.0000
  O2          0.86930      0.08112      0.69457  1.0000
  O2          0.77927      0.86518      0.85745  1.0000
  O3          0.07928      0.21718      0.52408  1.0000
  O2          0.12131      0.90655      0.19368  1.0000
  O2          0.92637      0.85704      0.24985  1.0000
  O3          0.12058      0.05308      0.58549  1.0000
  O3          0.92821      0.05308      0.91421  1.0000
  O2          0.06795      0.14020      0.74985  1.0000
  O2          0.85367      0.91978      0.08431  1.0000
  O2          0.06182      0.91978      0.41538  1.0000
  O3          0.89517      0.20582      0.97794  1.0000
  O2          0.78801      0.69152      0.31171  1.0000
  O2          0.29571      0.08909      0.64585  1.0000
  O2          0.09354      0.79581      0.48135  1.0000
  O2          0.19746      0.29461      0.81480  1.0000
  O2          0.69427      0.89731      0.14702  1.0000
  O2          0.19874      0.89731      0.35267  1.0000
  O2          0.69797      0.79581      0.01834  1.0000
  O2          0.09285      0.29461      0.68490  1.0000
  O2          0.78908      0.08909      0.85384  1.0000
  O3          0.30635      0.20582      0.52175  1.0000
  O2          0.89921      0.69152      0.18798  1.0000
  O2          0.31784      0.63998      0.24985  1.0000
  O2          0.35043      0.67390      0.58320  1.0000
  O2          0.31917      0.67390      0.91649  1.0000
  O2          0.67097      0.34624      0.74985  1.0000
  O2          0.64185      0.31879      0.08411  1.0000
  O2          0.67264      0.31879      0.41558  1.0000
  O2          0.37719      0.33126      0.97092  1.0000
  O2          0.66446      0.03851      0.30423  1.0000
  O2          0.94981      0.61827      0.63849  1.0000
  O2          0.61893      0.66602      0.46922  1.0000
  O2          0.32315      0.94823      0.80362  1.0000
  O2          0.04190      0.36720      0.13663  1.0000
  O2          0.32101      0.36720      0.36307  1.0000
  O2          0.04280      0.66602      0.03048  1.0000
  O2          0.62078      0.94823      0.69608  1.0000
  O2          0.66416      0.61827      0.86120  1.0000
  O2          0.94977      0.33126      0.52877  1.0000
  O2          0.36975      0.03851      0.19546  1.0000
  O2          0.76731      0.30098      0.01135  1.0000
  O2          0.68653      0.45998      0.34279  1.0000
  O2          0.52686      0.22097      0.67701  1.0000
  O2          0.22477      0.69719      0.51145  1.0000
  O2          0.29713      0.52553      0.84455  1.0000
  O2          0.46328      0.76519      0.17743  1.0000
  O2          0.29761      0.76519      0.32226  1.0000
  O2          0.46813      0.69719      0.98824  1.0000
  O2          0.22410      0.52553      0.65515  1.0000
  O2          0.68981      0.22097      0.82269  1.0000
  O2          0.52938      0.30098      0.48835  1.0000
  O2          0.76915      0.45998      0.15690  1.0000
  O2          0.78242      0.53094      0.02957  1.0000
  O2          0.45633      0.24285      0.36253  1.0000
  O2          0.74421      0.20699      0.69488  1.0000
  O2          0.21042      0.46616      0.52655  1.0000
  O2          0.52853      0.74225      0.86002  1.0000
  O2          0.24610      0.77943      0.19419  1.0000
  O2          0.52903      0.77943      0.30550  1.0000
  O2          0.25144      0.46616      0.97315  1.0000
  O2          0.20942      0.74225      0.63968  1.0000
  O2          0.45848      0.20699      0.80481  1.0000
  O2          0.74422      0.53094      0.47013  1.0000
  O2          0.78222      0.24285      0.13717  1.0000
  O2          0.22637      0.31967      0.89975  1.0000
  O2          0.67202      0.90344      0.23171  1.0000
  O2          0.08599      0.76515      0.56645  1.0000
  O2          0.75891      0.67057      0.39622  1.0000
  O2          0.31685      0.08258      0.73076  1.0000
  O2          0.90988      0.22803      0.06304  1.0000
  O2          0.31385      0.22803      0.43665  1.0000
  O2          0.90737      0.67057      0.10348  1.0000
  O2          0.76143      0.08258      0.76894  1.0000
  O2          0.67486      0.76515      0.93324  1.0000
  O2          0.08900      0.31967      0.59994  1.0000
  O2          0.22712      0.90344      0.26799  1.0000
  O2          0.59094      0.55928      0.98951  1.0000
  O2          0.43568      0.02388      0.32362  1.0000
  O2          0.96395      0.40303      0.65575  1.0000
  O2          0.40724      0.43996      0.49081  1.0000
  O2          0.55132      0.96289      0.82410  1.0000
  O2          0.02689      0.58010      0.15799  1.0000
  O2          0.54891      0.58010      0.34171  1.0000
  O2          0.02842      0.43995      0.00889  1.0000
  O2          0.40727      0.96289      0.67560  1.0000
  O2          0.43478      0.40303      0.84394  1.0000
  O2          0.96404      0.55928      0.51018  1.0000
  O2          0.58390      0.02388      0.17607  1.0000
  O2          0.57817      0.16064      0.24985  1.0000
  O2          0.82591      0.41421      0.58316  1.0000
  O2          0.58401      0.41421      0.91654  1.0000
  O2          0.41100      0.82629      0.74985  1.0000
  O2          0.16499      0.57758      0.08350  1.0000
  O2          0.40830      0.57758      0.41620  1.0000
  F           0.44771      0.89971      0.24985  1.0000
  F           0.08985      0.54386      0.58320  1.0000
  F           0.44972      0.54386      0.91650  1.0000
  F           0.54155      0.08739      0.74985  1.0000
  F           0.90322      0.44600      0.08337  1.0000
  F           0.53848      0.44600      0.41632  1.0000
