data_cif

_audit_creation_method             'generated by GULP'

_symmetry_space_group_name_H-M     'P 1'
_symmetry_Int_Tables_number        1
_symmetry_cell_setting             triclinic

_cell_length_a                       11.9736
_cell_length_b                       11.9851
_cell_length_c                       29.4501
_cell_angle_alpha                   90.0003
_cell_angle_beta                    90.0419
_cell_angle_gamma                  120.0319

loop_
_atom_site_label
_atom_site_fract_x
_atom_site_fract_y
_atom_site_fract_z
_atom_site_occupancy
  Si          0.69960      0.37570      0.03389  1.0000
  Si          0.61643      0.31831      0.36573  1.0000
  Si          0.66766      0.29255      0.69892  1.0000
  Si          0.28938      0.61197      0.53168  1.0000
  Si          0.37367      0.66897      0.86563  1.0000
  Si          0.32038      0.69787      0.19923  1.0000
  Si          0.37462      0.69741      0.30002  1.0000
  Si          0.32339      0.62040      0.96683  1.0000
  Si          0.29143      0.67164      0.63186  1.0000
  Si          0.61738      0.29082      0.80013  1.0000
  Si          0.67067      0.37302      0.46652  1.0000
  Si          0.70167      0.31811      0.13407  1.0000
  Si          0.53227      0.41640      0.96741  1.0000
  Si          0.57922      0.10770      0.30122  1.0000
  Si          0.87755      0.46287      0.63347  1.0000
  Si          0.46310      0.57627      0.46633  1.0000
  Si          0.41198      0.87884      0.80039  1.0000
  Si          0.11170      0.52455      0.13382  1.0000
  Si          0.41183      0.52401      0.36453  1.0000
  Si          0.11348      0.58082      0.03229  1.0000
  Si          0.45878      0.87967      0.69835  1.0000
  Si          0.57907      0.46238      0.86537  1.0000
  Si          0.87934      0.40838      0.53193  1.0000
  Si          0.52795      0.10868      0.19943  1.0000
  Si          0.29711      0.39060      0.85209  1.0000
  Si          0.59877      0.89958      0.18546  1.0000
  Si          0.08750      0.68844      0.51634  1.0000
  Si          0.69258      0.59573      0.35078  1.0000
  Si          0.38882      0.09012      0.68559  1.0000
  Si          0.90169      0.30196      0.01749  1.0000
  Si          0.39228      0.29635      0.48029  1.0000
  Si          0.90354      0.59644      0.14941  1.0000
  Si          0.69394      0.08902      0.81367  1.0000
  Si          0.60223      0.69681      0.98017  1.0000
  Si          0.08935      0.39581      0.64827  1.0000
  Si          0.29847      0.89868      0.31497  1.0000
  Si          0.25390      0.34047      0.95326  1.0000
  Si          0.65612      0.90622      0.28612  1.0000
  Si          0.08050      0.73997      0.61693  1.0000
  Si          0.74200      0.65367      0.45155  1.0000
  Si          0.33621      0.08168      0.78675  1.0000
  Si          0.91062      0.24602      0.11752  1.0000
  Si          0.33493      0.24563      0.37963  1.0000
  Si          0.91054      0.65497      0.04882  1.0000
  Si          0.73714      0.08210      0.71249  1.0000
  Si          0.65483      0.74099      0.87900  1.0000
  Si          0.08043      0.33093      0.54823  1.0000
  Si          0.24905      0.90718      0.21421  1.0000
  Ge          0.97003      0.11880      0.96756  1.0000
  Si          0.87364      0.84350      0.30041  1.0000
  Si          0.14329      0.01934      0.63212  1.0000
  Si          0.02222      0.87123      0.46615  1.0000
  Si          0.11897      0.14201      0.80123  1.0000
  Si          0.84613      0.96524      0.13449  1.0000
  Si          0.11741      0.96539      0.36534  1.0000
  Si          0.84776      0.87156      0.03364  1.0000
  Ge          0.02102      0.14431      0.69820  1.0000
  Si          0.87208      0.01855      0.86452  1.0000
  Si          0.14492      0.11465      0.53126  1.0000
  Si          0.96883      0.84452      0.19961  1.0000
  O3          0.93530      0.99465      0.00409  1.0000
  O2          0.99553      0.92311      0.33288  1.0000
  O3          0.05574      0.05490      0.66165  1.0000
  O2          0.06434      0.99353      0.49841  1.0000
  O2          0.99551      0.06221      0.83287  1.0000
  O2          0.92671      0.92469      0.16734  1.0000
  O2          0.33544      0.57329      0.33221  1.0000
  O2          0.41305      0.75666      0.66503  1.0000
  O2          0.23915      0.65875      0.99990  1.0000
  O2          0.65571      0.41360      0.83297  1.0000
  O2          0.57912      0.23436      0.16704  1.0000
  O2          0.75386      0.33289      0.49932  1.0000
  O2          0.57799      0.33912      0.00073  1.0000
  O2          0.75189      0.41512      0.66585  1.0000
  O2          0.65561      0.23338      0.33354  1.0000
  O2          0.41193      0.65077      0.49871  1.0000
  O2          0.23719      0.57455      0.16643  1.0000
  O2          0.33534      0.75342      0.83279  1.0000
  O3          0.13346      0.21636      0.97475  1.0000
  O2          0.78266      0.90653      0.30611  1.0000
  O2          0.08184      0.86569      0.63720  1.0000
  O2          0.86791      0.78070      0.47150  1.0000
  O2          0.21191      0.08146      0.80859  1.0000
  O2          0.91133      0.12012      0.13753  1.0000
  O2          0.20840      0.11940      0.35964  1.0000
  O2          0.90920      0.77935      0.02855  1.0000
  O3          0.85758      0.07842      0.69101  1.0000
  O2          0.77914      0.86507      0.85717  1.0000
  O2          0.07972      0.20432      0.52822  1.0000
  O2          0.12314      0.90831      0.19425  1.0000
  O2          0.92730      0.85690      0.24997  1.0000
  O2          0.13784      0.06007      0.58094  1.0000
  O3          0.92261      0.05061      0.91507  1.0000
  O3          0.06848      0.12354      0.75068  1.0000
  O2          0.85322      0.91776      0.08481  1.0000
  O2          0.06375      0.92513      0.41578  1.0000
  O3          0.89544      0.20677      0.97789  1.0000
  O2          0.79119      0.69203      0.31242  1.0000
  O2          0.29287      0.09326      0.64744  1.0000
  O2          0.08985      0.78718      0.47802  1.0000
  O2          0.19873      0.29385      0.81369  1.0000
  O2          0.69547      0.89825      0.14727  1.0000
  O2          0.19987      0.89637      0.35333  1.0000
  O2          0.69817      0.79590      0.01832  1.0000
  O3          0.09560      0.30688      0.68786  1.0000
  O2          0.79231      0.09064      0.85207  1.0000
  O2          0.29558      0.19832      0.51848  1.0000
  O2          0.90120      0.69284      0.18773  1.0000
  O2          0.31878      0.64059      0.24960  1.0000
  O2          0.34846      0.67182      0.58156  1.0000
  O2          0.31953      0.67319      0.91610  1.0000
  O2          0.67151      0.34918      0.74966  1.0000
  O2          0.64258      0.31886      0.08419  1.0000
  O2          0.67227      0.31734      0.41615  1.0000
  O2          0.37688      0.33054      0.97060  1.0000
  O2          0.66643      0.03870      0.30447  1.0000
  O2          0.94757      0.61905      0.63571  1.0000
  O2          0.61942      0.66371      0.46976  1.0000
  O2          0.32617      0.94895      0.80440  1.0000
  O2          0.04293      0.36826      0.13634  1.0000
  O2          0.32463      0.36781      0.36129  1.0000
  O2          0.04346      0.66698      0.03004  1.0000
  O2          0.61417      0.94920      0.69515  1.0000
  O2          0.66488      0.61830      0.86135  1.0000
  O2          0.94812      0.32086      0.52942  1.0000
  O2          0.37163      0.03981      0.19599  1.0000
  O2          0.76707      0.30105      0.01130  1.0000
  O2          0.69195      0.46149      0.34336  1.0000
  O2          0.52294      0.22397      0.67773  1.0000
  O2          0.22012      0.68564      0.50903  1.0000
  O2          0.29797      0.52489      0.84394  1.0000
  O2          0.46426      0.76651      0.17738  1.0000
  O2          0.29910      0.76506      0.32240  1.0000
  O2          0.46810      0.69654      0.98803  1.0000
  O2          0.22396      0.52952      0.65446  1.0000
  O2          0.69308      0.22245      0.82181  1.0000
  O2          0.52679      0.29778      0.48837  1.0000
  O2          0.77093      0.46103      0.15672  1.0000
  O2          0.78284      0.53115      0.02948  1.0000
  O2          0.46045      0.24460      0.36031  1.0000
  O2          0.73996      0.20968      0.69327  1.0000
  O2          0.20770      0.45563      0.52863  1.0000
  O2          0.52914      0.74193      0.85993  1.0000
  O2          0.24722      0.78070      0.19439  1.0000
  O2          0.53060      0.77967      0.30544  1.0000
  O2          0.25109      0.46523      0.97248  1.0000
  O2          0.20820      0.74386      0.63627  1.0000
  O2          0.46191      0.20831      0.80583  1.0000
  O2          0.74383      0.52901      0.47136  1.0000
  O2          0.78335      0.24344      0.13712  1.0000
  O2          0.22711      0.31867      0.89894  1.0000
  O2          0.67345      0.90400      0.23183  1.0000
  O2          0.08196      0.75816      0.56258  1.0000
  O2          0.76196      0.67078      0.39723  1.0000
  O2          0.31607      0.08563      0.73251  1.0000
  O2          0.91000      0.22842      0.06290  1.0000
  O2          0.31760      0.22609      0.43392  1.0000
  O2          0.90908      0.67170      0.10317  1.0000
  O2          0.76394      0.08709      0.76682  1.0000
  O2          0.67498      0.76508      0.93325  1.0000
  O2          0.08104      0.31396      0.60285  1.0000
  O2          0.22909      0.90433      0.26852  1.0000
  O2          0.59066      0.55888      0.98944  1.0000
  O2          0.43785      0.02374      0.32422  1.0000
  O2          0.96260      0.40776      0.65711  1.0000
  O2          0.40544      0.43511      0.48927  1.0000
  O2          0.55498      0.96256      0.82234  1.0000
  O2          0.02848      0.58150      0.15769  1.0000
  O2          0.55320      0.58142      0.34153  1.0000
  O2          0.02844      0.44066      0.00865  1.0000
  O2          0.40038      0.96375      0.67632  1.0000
  O2          0.43607      0.40310      0.84342  1.0000
  O2          0.96257      0.54855      0.50807  1.0000
  O2          0.58561      0.02518      0.17649  1.0000
  O2          0.57996      0.16129      0.25040  1.0000
  O2          0.82521      0.40869      0.58261  1.0000
  O2          0.58379      0.41353      0.91652  1.0000
  O2          0.40726      0.82527      0.74923  1.0000
  O2          0.16583      0.57899      0.08315  1.0000
  O2          0.41109      0.57686      0.41536  1.0000
  F           0.44901      0.89998      0.25013  1.0000
  F           0.08684      0.53797      0.58265  1.0000
  F           0.44957      0.54298      0.91616  1.0000
  F           0.54148      0.08894      0.74959  1.0000
  F           0.90420      0.44663      0.08311  1.0000
  F           0.54204      0.44650      0.41563  1.0000
