data_cif

_audit_creation_method             'generated by GULP'

_symmetry_space_group_name_H-M     'P 1'
_symmetry_Int_Tables_number        1
_symmetry_cell_setting             triclinic

_cell_length_a                       12.6261
_cell_length_b                       12.6736
_cell_length_c                       30.8925
_cell_angle_alpha                   89.6534
_cell_angle_beta                    90.6702
_cell_angle_gamma                  119.7391

loop_
_atom_site_label
_atom_site_fract_x
_atom_site_fract_y
_atom_site_fract_z
_atom_site_occupancy
  Si          0.69960      0.37570      0.03389  1.0000
  Ge          0.63079      0.31719      0.36586  1.0000
  Ge          0.68127      0.30661      0.70096  1.0000
  Ge          0.31001      0.62570      0.53388  1.0000
  Ge          0.37735      0.67764      0.86667  1.0000
  Ge          0.31720      0.69180      0.19601  1.0000
  Ge          0.38159      0.70331      0.29774  1.0000
  Ge          0.32548      0.62253      0.96681  1.0000
  Ge          0.29506      0.67108      0.63231  1.0000
  Ge          0.62359      0.29568      0.80053  1.0000
  Ge          0.67271      0.38003      0.46443  1.0000
  Ge          0.70450      0.32302      0.13435  1.0000
  Ge          0.53225      0.42214      0.97110  1.0000
  Ge          0.58286      0.10503      0.29961  1.0000
  Ge          0.89300      0.47359      0.63536  1.0000
  Ge          0.47700      0.58031      0.46871  1.0000
  Ge          0.42161      0.89061      0.80111  1.0000
  Ge          0.09895      0.52378      0.13118  1.0000
  Ge          0.42102      0.53023      0.36420  1.0000
  Ge          0.11463      0.58413      0.03095  1.0000
  Ge          0.46911      0.88513      0.69670  1.0000
  Ge          0.58563      0.46683      0.86710  1.0000
  Ge          0.88515      0.41926      0.53063  1.0000
  Ge          0.52846      0.10943      0.19710  1.0000
  Ge          0.29991      0.39850      0.85392  1.0000
  Ge          0.59589      0.89579      0.18234  1.0000
  Ge          0.10780      0.70317      0.51917  1.0000
  Ge          0.70818      0.59734      0.35205  1.0000
  Ge          0.40383      0.10517      0.68479  1.0000
  Ge          0.90105      0.30336      0.01825  1.0000
  Ge          0.40144      0.29587      0.48414  1.0000
  Ge          0.90347      0.60103      0.14968  1.0000
  Ge          0.70387      0.09996      0.81616  1.0000
  Ge          0.59982      0.70128      0.98420  1.0000
  Ge          0.10514      0.39988      0.64997  1.0000
  Ge          0.30303      0.90024      0.31423  1.0000
  Ge          0.25054      0.34313      0.95631  1.0000
  Ge          0.65867      0.90468      0.28363  1.0000
  Ge          0.09850      0.75429      0.62105  1.0000
  Ge          0.75950      0.65761      0.45449  1.0000
  Ge          0.34585      0.09561      0.78648  1.0000
  Ge          0.91262      0.24892      0.11962  1.0000
  Ge          0.34612      0.24904      0.38081  1.0000
  Ge          0.90680      0.65386      0.04724  1.0000
  Ge          0.75067      0.09257      0.71388  1.0000
  Ge          0.66015      0.74781      0.88248  1.0000
  Ge          0.09431      0.34471      0.54738  1.0000
  Ge          0.25093      0.90758      0.21202  1.0000
  Ge          0.96987      0.12257      0.97118  1.0000
  Ge          0.88264      0.84666      0.30215  1.0000
  Ge          0.15228      0.03211      0.63626  1.0000
  Ge          0.03699      0.88130      0.46908  1.0000
  Ge          0.12147      0.15003      0.80373  1.0000
  Ge          0.84678      0.96604      0.13577  1.0000
  Ge          0.12788      0.97211      0.36680  1.0000
  Ge          0.84753      0.87378      0.03511  1.0000
  Ge          0.02871      0.15126      0.70143  1.0000
  Ge          0.87942      0.02583      0.86885  1.0000
  Ge          0.15178      0.12510      0.53458  1.0000
  Ge          0.97237      0.84661      0.20095  1.0000
  O1          0.93174      0.00615      0.00718  1.0000
  O1          0.99482      0.92866      0.33942  1.0000
  O1          0.07496      0.06560      0.67385  1.0000
  O1          0.07080      0.99658      0.50475  1.0000
  O1          0.00826      0.06738      0.83988  1.0000
  O1          0.91963      0.93128      0.17560  1.0000
  O1          0.34448      0.57758      0.33147  1.0000
  O1          0.42422      0.76179      0.66577  1.0000
  O1          0.23505      0.66178      0.99761  1.0000
  O1          0.66209      0.41974      0.83545  1.0000
  O1          0.57571      0.23487      0.16420  1.0000
  O1          0.76293      0.34135      0.49889  1.0000
  O3          0.58274      0.34215      0.00413  1.0000
  O1          0.76824      0.42900      0.66777  1.0000
  O1          0.66447      0.23231      0.33171  1.0000
  O1          0.43133      0.66081      0.50036  1.0000
  O1          0.23087      0.57179      0.16430  1.0000
  O1          0.34129      0.76354      0.83270  1.0000
  O1          0.12398      0.21842      0.97763  1.0000
  O1          0.78768      0.90589      0.30405  1.0000
  O1          0.09407      0.87861      0.64136  1.0000
  O1          0.88296      0.78728      0.47460  1.0000
  O1          0.21796      0.09217      0.80755  1.0000
  O1          0.91027      0.12056      0.13934  1.0000
  O1          0.22366      0.12458      0.35752  1.0000
  O1          0.89638      0.77162      0.02335  1.0000
  O1          0.87656      0.09626      0.69082  1.0000
  O1          0.78384      0.87304      0.86039  1.0000
  O1          0.09655      0.22200      0.52410  1.0000
  O1          0.12381      0.90352      0.18886  1.0000
  O1          0.95836      0.86488      0.25489  1.0000
  O1          0.12494      0.07767      0.58738  1.0000
  O1          0.92967      0.05597      0.92153  1.0000
  O1          0.04996      0.13103      0.75501  1.0000
  O1          0.87640      0.91662      0.08842  1.0000
  O1          0.08463      0.94831      0.41990  1.0000
  O1          0.89568      0.20428      0.97896  1.0000
  O1          0.80133      0.69331      0.31220  1.0000
  O1          0.30695      0.10482      0.64461  1.0000
  O1          0.10869      0.79914      0.47898  1.0000
  O1          0.20233      0.30307      0.81444  1.0000
  O1          0.69223      0.89904      0.14203  1.0000
  O1          0.20277      0.89599      0.35345  1.0000
  O1          0.69532      0.80277      0.02366  1.0000
  O1          0.10753      0.30259      0.68920  1.0000
  O1          0.80353      0.10192      0.85594  1.0000
  O1          0.30473      0.19964      0.52359  1.0000
  O1          0.89363      0.69592      0.18775  1.0000
  O1          0.31132      0.64314      0.24916  1.0000
  O1          0.36992      0.67750      0.58466  1.0000
  O1          0.32563      0.68560      0.91718  1.0000
  O1          0.68608      0.36522      0.75176  1.0000
  O3          0.65791      0.34559      0.08349  1.0000
  O1          0.68390      0.31268      0.41695  1.0000
  O1          0.37619      0.33829      0.97605  1.0000
  O1          0.66493      0.03081      0.30648  1.0000
  O1          0.96829      0.62992      0.63902  1.0000
  O1          0.63361      0.66333      0.47163  1.0000
  O1          0.33859      0.96444      0.80475  1.0000
  O1          0.03763      0.36950      0.14231  1.0000
  O1          0.33642      0.37346      0.36507  1.0000
  O1          0.04675      0.67420      0.03467  1.0000
  O1          0.62778      0.96019      0.69771  1.0000
  O1          0.67186      0.62394      0.86851  1.0000
  O1          0.95985      0.33488      0.53293  1.0000
  O1          0.37302      0.04790      0.20026  1.0000
  O3          0.75902      0.29415      0.01967  1.0000
  O1          0.70969      0.46421      0.34600  1.0000
  O1          0.53587      0.24121      0.67931  1.0000
  O1          0.24434      0.70706      0.51362  1.0000
  O1          0.29558      0.53072      0.84783  1.0000
  O1          0.46821      0.75660      0.17958  1.0000
  O1          0.31420      0.77316      0.32478  1.0000
  O1          0.46506      0.69825      0.99315  1.0000
  O1          0.23720      0.53378      0.65956  1.0000
  O1          0.70235      0.23249      0.82531  1.0000
  O1          0.53617      0.29739      0.49218  1.0000
  O1          0.77957      0.46037      0.16040  1.0000
  O3          0.79395      0.51781      0.02546  1.0000
  O1          0.47456      0.25418      0.36120  1.0000
  O1          0.75017      0.21973      0.69483  1.0000
  O1          0.21933      0.47094      0.52722  1.0000
  O1          0.53276      0.74306      0.86035  1.0000
  O1          0.26737      0.79545      0.18870  1.0000
  O1          0.53849      0.77011      0.30151  1.0000
  O1          0.24239      0.46644      0.97445  1.0000
  O1          0.22871      0.76134      0.64148  1.0000
  O1          0.46724      0.22491      0.80747  1.0000
  O1          0.76654      0.53579      0.47528  1.0000
  O1          0.77685      0.23888      0.13531  1.0000
  O1          0.23393      0.32205      0.90117  1.0000
  O1          0.68118      0.91437      0.22859  1.0000
  O1          0.09922      0.77283      0.56563  1.0000
  O1          0.77801      0.67329      0.39906  1.0000
  O1          0.32619      0.09748      0.73133  1.0000
  O1          0.92363      0.23990      0.06425  1.0000
  O1          0.32996      0.22782      0.43598  1.0000
  O1          0.88936      0.66444      0.10174  1.0000
  O1          0.77392      0.09720      0.76915  1.0000
  O1          0.67424      0.77377      0.93747  1.0000
  O1          0.10447      0.32881      0.60250  1.0000
  O1          0.22554      0.89131      0.26687  1.0000
  O1          0.59440      0.56456      0.99362  1.0000
  O1          0.43825      0.03307      0.32139  1.0000
  O1          0.97737      0.41259      0.65714  1.0000
  O1          0.41744      0.43762      0.49124  1.0000
  O1          0.56476      0.97310      0.82442  1.0000
  O1          0.03903      0.60411      0.15790  1.0000
  O1          0.56416      0.57511      0.34454  1.0000
  O1          0.01364      0.44622      0.00656  1.0000
  O1          0.42490      0.98443      0.67596  1.0000
  O1          0.44329      0.42215      0.84521  1.0000
  O1          0.98836      0.56106      0.51060  1.0000
  O1          0.56828      0.01323      0.17228  1.0000
  O1          0.59390      0.15886      0.24742  1.0000
  O1          0.84424      0.42935      0.58325  1.0000
  O1          0.57679      0.41439      0.91972  1.0000
  O1          0.41990      0.84280      0.74933  1.0000
  O1          0.16818      0.57220      0.08116  1.0000
  O1          0.42838      0.58049      0.41652  1.0000
  F           0.45806      0.89790      0.25547  1.0000
  F           0.13274      0.57107      0.59096  1.0000
  F           0.44310      0.55618      0.92506  1.0000
  F           0.55792      0.12255      0.75594  1.0000
  F           0.93147      0.46026      0.09345  1.0000
  F           0.57656      0.44111      0.42549  1.0000
