data_cif

_audit_creation_method             'generated by GULP'

_symmetry_space_group_name_H-M     'P 1'
_symmetry_Int_Tables_number        1
_symmetry_cell_setting             triclinic

_cell_length_a                       12.6171
_cell_length_b                       12.6542
_cell_length_c                       30.4945
_cell_angle_alpha                   89.6922
_cell_angle_beta                    90.7972
_cell_angle_gamma                  119.7799

loop_
_atom_site_label
_atom_site_fract_x
_atom_site_fract_y
_atom_site_fract_z
_atom_site_occupancy
  Si          0.69960      0.37570      0.03389  1.0000
  Ge          0.62166      0.31715      0.36703  1.0000
  Ge          0.67854      0.31208      0.70170  1.0000
  Ge          0.30486      0.62930      0.53356  1.0000
  Ge          0.37165      0.67591      0.86568  1.0000
  Ge          0.30575      0.68701      0.19625  1.0000
  Ge          0.37659      0.70971      0.29739  1.0000
  Ge          0.32750      0.61536      0.96534  1.0000
  Ge          0.28514      0.67374      0.63253  1.0000
  Ge          0.61207      0.28452      0.80070  1.0000
  Ge          0.66648      0.38690      0.46598  1.0000
  Ge          0.70274      0.32076      0.13576  1.0000
  Ge          0.52605      0.41929      0.97180  1.0000
  Ge          0.57484      0.10133      0.30192  1.0000
  Ge          0.89332      0.48326      0.63699  1.0000
  Ge          0.47295      0.58330      0.46797  1.0000
  Ge          0.41520      0.89280      0.80117  1.0000
  Ge          0.08962      0.51548      0.13076  1.0000
  Ge          0.41306      0.53090      0.36264  1.0000
  Ge          0.11736      0.58095      0.02981  1.0000
  Ge          0.46348      0.89002      0.69600  1.0000
  Ge          0.57883      0.46177      0.86654  1.0000
  Ge          0.88223      0.42586      0.53178  1.0000
  Ge          0.52068      0.10622      0.19758  1.0000
  Ge          0.29653      0.39904      0.85376  1.0000
  Ge          0.58419      0.89042      0.18332  1.0000
  Ge          0.10245      0.70529      0.51973  1.0000
  Ge          0.69432      0.59257      0.35118  1.0000
  Ge          0.40294      0.11014      0.68516  1.0000
  Ge          0.89796      0.30035      0.01845  1.0000
  Ge          0.39474      0.29951      0.48531  1.0000
  Ge          0.90233      0.59920      0.15321  1.0000
  Ge          0.69907      0.09823      0.81909  1.0000
  Ge          0.59935      0.70197      0.98570  1.0000
  Ge          0.10072      0.40416      0.65317  1.0000
  Ge          0.29310      0.89751      0.31698  1.0000
  Ge          0.24408      0.33756      0.95698  1.0000
  Ge          0.65313      0.90190      0.28585  1.0000
  Ge          0.09507      0.76262      0.62269  1.0000
  Ge          0.75379      0.66348      0.45409  1.0000
  Ge          0.33557      0.09406      0.78799  1.0000
  Ge          0.90743      0.24059      0.12129  1.0000
  Ge          0.33931      0.25232      0.38111  1.0000
  Ge          0.91053      0.65194      0.04887  1.0000
  Ge          0.74292      0.09445      0.71526  1.0000
  Ge          0.65310      0.74153      0.88196  1.0000
  Ge          0.08772      0.34984      0.54922  1.0000
  Ge          0.24417      0.90491      0.21299  1.0000
  Ge          0.96344      0.11324      0.97452  1.0000
  Ge          0.87732      0.84489      0.30607  1.0000
  Ge          0.14837      0.04117      0.63972  1.0000
  Ge          0.03319      0.88884      0.47211  1.0000
  Ge          0.11054      0.14702      0.80689  1.0000
  Ge          0.83673      0.95622      0.13986  1.0000
  Ge          0.12306      0.97636      0.37060  1.0000
  Ge          0.84908      0.86979      0.03929  1.0000
  Ge          0.01889      0.15308      0.70555  1.0000
  Ge          0.87057      0.01728      0.87287  1.0000
  Ge          0.14465      0.13136      0.53801  1.0000
  Ge          0.96686      0.84342      0.20575  1.0000
  O1          0.93398      0.01022      0.01592  1.0000
  O1          0.97966      0.91568      0.34826  1.0000
  O1          0.07962      0.07417      0.68133  1.0000
  O1          0.06344      0.99268      0.51305  1.0000
  O1          0.00972      0.07586      0.84851  1.0000
  O1          0.89845      0.91874      0.18352  1.0000
  O1          0.33679      0.57846      0.33063  1.0000
  O1          0.41894      0.76686      0.66495  1.0000
  O1          0.23561      0.65689      0.99625  1.0000
  O1          0.65364      0.41301      0.83560  1.0000
  O1          0.57077      0.23237      0.16485  1.0000
  O1          0.75803      0.34809      0.50048  1.0000
  O3          0.58157      0.34190      0.00443  1.0000
  O1          0.76486      0.43417      0.66848  1.0000
  O1          0.65603      0.23069      0.33344  1.0000
  O1          0.42325      0.66354      0.49885  1.0000
  O1          0.22360      0.56709      0.16414  1.0000
  O1          0.33579      0.76058      0.83081  1.0000
  O1          0.11894      0.20674      0.97605  1.0000
  O1          0.78630      0.90931      0.30511  1.0000
  O1          0.08529      0.88613      0.64102  1.0000
  O1          0.87750      0.79840      0.47162  1.0000
  O1          0.20076      0.08139      0.80611  1.0000
  O1          0.90530      0.11193      0.14077  1.0000
  O1          0.21600      0.12665      0.35697  1.0000
  O1          0.90053      0.77173      0.02528  1.0000
  O1          0.86846      0.09742      0.69125  1.0000
  O1          0.77766      0.86684      0.85912  1.0000
  O1          0.08797      0.22609      0.52501  1.0000
  O1          0.11629      0.90235      0.19012  1.0000
  O1          0.96511      0.86771      0.26094  1.0000
  O1          0.12045      0.09824      0.59288  1.0000
  O1          0.90510      0.02822      0.92795  1.0000
  O1          0.02487      0.12669      0.76060  1.0000
  O1          0.86922      0.89847      0.09466  1.0000
  O1          0.09718      0.97157      0.42594  1.0000
  O1          0.89445      0.20082      0.97913  1.0000
  O1          0.78689      0.68999      0.31101  1.0000
  O1          0.30389      0.10709      0.64480  1.0000
  O1          0.09738      0.79818      0.47912  1.0000
  O1          0.20207      0.30111      0.81344  1.0000
  O1          0.68201      0.89581      0.14276  1.0000
  O1          0.19457      0.89698      0.35643  1.0000
  O1          0.69791      0.80236      0.02507  1.0000
  O1          0.09868      0.30508      0.69314  1.0000
  O1          0.79623      0.09521      0.85935  1.0000
  O1          0.29641      0.20372      0.52513  1.0000
  O1          0.89100      0.69180      0.19247  1.0000
  O1          0.29472      0.64087      0.25049  1.0000
  O1          0.36202      0.66902      0.58599  1.0000
  O1          0.33285      0.69406      0.91766  1.0000
  O1          0.69256      0.36471      0.75448  1.0000
  O3          0.65938      0.34761      0.08454  1.0000
  O1          0.66385      0.30465      0.41974  1.0000
  O1          0.37167      0.34396      0.98158  1.0000
  O1          0.65068      0.02192      0.31140  1.0000
  O1          0.97649      0.63743      0.64706  1.0000
  O1          0.62786      0.65670      0.47820  1.0000
  O1          0.34385      0.97536      0.81235  1.0000
  O1          0.03182      0.36169      0.14425  1.0000
  O1          0.32063      0.37489      0.37140  1.0000
  O1          0.04984      0.67244      0.03639  1.0000
  O1          0.62056      0.95437      0.70570  1.0000
  O1          0.67149      0.61846      0.87428  1.0000
  O1          0.94667      0.33310      0.54098  1.0000
  O1          0.36620      0.04832      0.20427  1.0000
  O3          0.75549      0.29066      0.01992  1.0000
  O1          0.71221      0.46702      0.35050  1.0000
  O1          0.52786      0.25348      0.68478  1.0000
  O1          0.24557      0.72185      0.51817  1.0000
  O1          0.27891      0.52481      0.85099  1.0000
  O1          0.46012      0.74912      0.18269  1.0000
  O1          0.31124      0.77539      0.32935  1.0000
  O1          0.46051      0.68662      0.99735  1.0000
  O1          0.22536      0.54263      0.66501  1.0000
  O1          0.68250      0.22048      0.83213  1.0000
  O1          0.53449      0.31547      0.49768  1.0000
  O1          0.77876      0.45641      0.16330  1.0000
  O3          0.79680      0.51710      0.02578  1.0000
  O1          0.46831      0.26618      0.35775  1.0000
  O1          0.73045      0.21139      0.69189  1.0000
  O1          0.20200      0.47701      0.52469  1.0000
  O1          0.52431      0.72637      0.85650  1.0000
  O1          0.26663      0.79926      0.18719  1.0000
  O1          0.53392      0.76411      0.30227  1.0000
  O1          0.22776      0.45820      0.97282  1.0000
  O1          0.23257      0.77888      0.63967  1.0000
  O1          0.45454      0.23062      0.80607  1.0000
  O1          0.77135      0.54437      0.47213  1.0000
  O1          0.77190      0.23316      0.13662  1.0000
  O1          0.23921      0.31513      0.90102  1.0000
  O1          0.67370      0.92039      0.23007  1.0000
  O1          0.07721      0.76526      0.56647  1.0000
  O1          0.75393      0.67986      0.39786  1.0000
  O1          0.31652      0.08023      0.73176  1.0000
  O1          0.91981      0.23602      0.06512  1.0000
  O1          0.33432      0.22271      0.43654  1.0000
  O1          0.88876      0.66052      0.10396  1.0000
  O1          0.77604      0.11826      0.77066  1.0000
  O1          0.65870      0.77611      0.93686  1.0000
  O1          0.11658      0.34448      0.60444  1.0000
  O1          0.21475      0.87956      0.26814  1.0000
  O1          0.60180      0.56703      0.99045  1.0000
  O1          0.42766      0.03413      0.32140  1.0000
  O1          0.96523      0.40583      0.65589  1.0000
  O1          0.39594      0.43615      0.48772  1.0000
  O1          0.56372      0.96184      0.82085  1.0000
  O1          0.03724      0.60078      0.16039  1.0000
  O1          0.54563      0.54924      0.33953  1.0000
  O1          0.00766      0.44352      0.00621  1.0000
  O1          0.44617      0.00587      0.67277  1.0000
  O1          0.44431      0.44070      0.84289  1.0000
  O1          0.99643      0.55778      0.50846  1.0000
  O1          0.54834      0.00216      0.17183  1.0000
  O1          0.59172      0.14949      0.24811  1.0000
  O1          0.84800      0.45898      0.58306  1.0000
  O1          0.55071      0.39717      0.91861  1.0000
  O1          0.39483      0.85342      0.74690  1.0000
  O1          0.16500      0.56306      0.08098  1.0000
  O1          0.44571      0.59962      0.41388  1.0000
  F           0.44401      0.88093      0.25964  1.0000
  F           0.12950      0.58055      0.59507  1.0000
  F           0.42627      0.55243      0.92811  1.0000
  F           0.55269      0.13077      0.76091  1.0000
  F           0.93172      0.45744      0.09564  1.0000
  F           0.57075      0.44535      0.42745  1.0000
